
Note: No compatibility mode selected!


Circuit: * transmission gate ac characterization - ngspice version

Doing analysis at TEMP = 27.000000 and TNOM = 27.000000

Using SPARSE 1.3 as Direct Linear Solver
 Reference value :  1.00000e+03
No. of Data Rows : 601
           * transmission gate ac characterization - ngspice version
           AC Analysis  Tue Jan  6 18:25:29  2026
--------------------------------------------------------------------------------
Index   frequency       in1                             
--------------------------------------------------------------------------------
0	1.000000e+03	1.000000e+00,	0.000000e+00	
1	1.023293e+03	1.000000e+00,	0.000000e+00	
2	1.047129e+03	1.000000e+00,	0.000000e+00	
3	1.071519e+03	1.000000e+00,	0.000000e+00	
4	1.096478e+03	1.000000e+00,	0.000000e+00	
5	1.122018e+03	1.000000e+00,	0.000000e+00	
6	1.148154e+03	1.000000e+00,	0.000000e+00	
7	1.174898e+03	1.000000e+00,	0.000000e+00	
8	1.202264e+03	1.000000e+00,	0.000000e+00	
9	1.230269e+03	1.000000e+00,	0.000000e+00	
10	1.258925e+03	1.000000e+00,	0.000000e+00	
11	1.288250e+03	1.000000e+00,	0.000000e+00	
12	1.318257e+03	1.000000e+00,	0.000000e+00	
13	1.348963e+03	1.000000e+00,	0.000000e+00	
14	1.380384e+03	1.000000e+00,	0.000000e+00	
15	1.412538e+03	1.000000e+00,	0.000000e+00	
16	1.445440e+03	1.000000e+00,	0.000000e+00	
17	1.479108e+03	1.000000e+00,	0.000000e+00	
18	1.513561e+03	1.000000e+00,	0.000000e+00	
19	1.548817e+03	1.000000e+00,	0.000000e+00	
20	1.584893e+03	1.000000e+00,	0.000000e+00	
21	1.621810e+03	1.000000e+00,	0.000000e+00	
22	1.659587e+03	1.000000e+00,	0.000000e+00	
23	1.698244e+03	1.000000e+00,	0.000000e+00	
24	1.737801e+03	1.000000e+00,	0.000000e+00	
25	1.778279e+03	1.000000e+00,	0.000000e+00	
26	1.819701e+03	1.000000e+00,	0.000000e+00	
27	1.862087e+03	1.000000e+00,	0.000000e+00	
28	1.905461e+03	1.000000e+00,	0.000000e+00	
29	1.949845e+03	1.000000e+00,	0.000000e+00	
30	1.995262e+03	1.000000e+00,	0.000000e+00	
31	2.041738e+03	1.000000e+00,	0.000000e+00	
32	2.089296e+03	1.000000e+00,	0.000000e+00	
33	2.137962e+03	1.000000e+00,	0.000000e+00	
34	2.187762e+03	1.000000e+00,	0.000000e+00	
35	2.238721e+03	1.000000e+00,	0.000000e+00	
36	2.290868e+03	1.000000e+00,	0.000000e+00	
37	2.344229e+03	1.000000e+00,	0.000000e+00	
38	2.398833e+03	1.000000e+00,	0.000000e+00	
39	2.454709e+03	1.000000e+00,	0.000000e+00	
40	2.511886e+03	1.000000e+00,	0.000000e+00	
41	2.570396e+03	1.000000e+00,	0.000000e+00	
42	2.630268e+03	1.000000e+00,	0.000000e+00	
43	2.691535e+03	1.000000e+00,	0.000000e+00	
44	2.754229e+03	1.000000e+00,	0.000000e+00	
45	2.818383e+03	1.000000e+00,	0.000000e+00	
46	2.884032e+03	1.000000e+00,	0.000000e+00	
47	2.951209e+03	1.000000e+00,	0.000000e+00	
48	3.019952e+03	1.000000e+00,	0.000000e+00	
49	3.090295e+03	1.000000e+00,	0.000000e+00	
50	3.162278e+03	1.000000e+00,	0.000000e+00	
51	3.235937e+03	1.000000e+00,	0.000000e+00	
52	3.311311e+03	1.000000e+00,	0.000000e+00	
53	3.388442e+03	1.000000e+00,	0.000000e+00	
54	3.467369e+03	1.000000e+00,	0.000000e+00	

Index   frequency       in1                             
--------------------------------------------------------------------------------
55	3.548134e+03	1.000000e+00,	0.000000e+00	
56	3.630781e+03	1.000000e+00,	0.000000e+00	
57	3.715352e+03	1.000000e+00,	0.000000e+00	
58	3.801894e+03	1.000000e+00,	0.000000e+00	
59	3.890451e+03	1.000000e+00,	0.000000e+00	
60	3.981072e+03	1.000000e+00,	0.000000e+00	
61	4.073803e+03	1.000000e+00,	0.000000e+00	
62	4.168694e+03	1.000000e+00,	0.000000e+00	
63	4.265795e+03	1.000000e+00,	0.000000e+00	
64	4.365158e+03	1.000000e+00,	0.000000e+00	
65	4.466836e+03	1.000000e+00,	0.000000e+00	
66	4.570882e+03	1.000000e+00,	0.000000e+00	
67	4.677351e+03	1.000000e+00,	0.000000e+00	
68	4.786301e+03	1.000000e+00,	0.000000e+00	
69	4.897788e+03	1.000000e+00,	0.000000e+00	
70	5.011872e+03	1.000000e+00,	0.000000e+00	
71	5.128614e+03	1.000000e+00,	0.000000e+00	
72	5.248075e+03	1.000000e+00,	0.000000e+00	
73	5.370318e+03	1.000000e+00,	0.000000e+00	
74	5.495409e+03	1.000000e+00,	0.000000e+00	
75	5.623413e+03	1.000000e+00,	0.000000e+00	
76	5.754399e+03	1.000000e+00,	0.000000e+00	
77	5.888437e+03	1.000000e+00,	0.000000e+00	
78	6.025596e+03	1.000000e+00,	0.000000e+00	
79	6.165950e+03	1.000000e+00,	0.000000e+00	
80	6.309573e+03	1.000000e+00,	0.000000e+00	
81	6.456542e+03	1.000000e+00,	0.000000e+00	
82	6.606934e+03	1.000000e+00,	0.000000e+00	
83	6.760830e+03	1.000000e+00,	0.000000e+00	
84	6.918310e+03	1.000000e+00,	0.000000e+00	
85	7.079458e+03	1.000000e+00,	0.000000e+00	
86	7.244360e+03	1.000000e+00,	0.000000e+00	
87	7.413102e+03	1.000000e+00,	0.000000e+00	
88	7.585776e+03	1.000000e+00,	0.000000e+00	
89	7.762471e+03	1.000000e+00,	0.000000e+00	
90	7.943282e+03	1.000000e+00,	0.000000e+00	
91	8.128305e+03	1.000000e+00,	0.000000e+00	
92	8.317638e+03	1.000000e+00,	0.000000e+00	
93	8.511380e+03	1.000000e+00,	0.000000e+00	
94	8.709636e+03	1.000000e+00,	0.000000e+00	
95	8.912509e+03	1.000000e+00,	0.000000e+00	
96	9.120108e+03	1.000000e+00,	0.000000e+00	
97	9.332543e+03	1.000000e+00,	0.000000e+00	
98	9.549926e+03	1.000000e+00,	0.000000e+00	
99	9.772372e+03	1.000000e+00,	0.000000e+00	
100	1.000000e+04	1.000000e+00,	0.000000e+00	
101	1.023293e+04	1.000000e+00,	0.000000e+00	
102	1.047129e+04	1.000000e+00,	0.000000e+00	
103	1.071519e+04	1.000000e+00,	0.000000e+00	
104	1.096478e+04	1.000000e+00,	0.000000e+00	
105	1.122018e+04	1.000000e+00,	0.000000e+00	
106	1.148154e+04	1.000000e+00,	0.000000e+00	
107	1.174898e+04	1.000000e+00,	0.000000e+00	
108	1.202264e+04	1.000000e+00,	0.000000e+00	
109	1.230269e+04	1.000000e+00,	0.000000e+00	
110	1.258925e+04	1.000000e+00,	0.000000e+00	
111	1.288250e+04	1.000000e+00,	0.000000e+00	
112	1.318257e+04	1.000000e+00,	0.000000e+00	

Index   frequency       in1                             
--------------------------------------------------------------------------------
113	1.348963e+04	1.000000e+00,	0.000000e+00	
114	1.380384e+04	1.000000e+00,	0.000000e+00	
115	1.412538e+04	1.000000e+00,	0.000000e+00	
116	1.445440e+04	1.000000e+00,	0.000000e+00	
117	1.479108e+04	1.000000e+00,	0.000000e+00	
118	1.513561e+04	1.000000e+00,	0.000000e+00	
119	1.548817e+04	1.000000e+00,	0.000000e+00	
120	1.584893e+04	1.000000e+00,	0.000000e+00	
121	1.621810e+04	1.000000e+00,	0.000000e+00	
122	1.659587e+04	1.000000e+00,	0.000000e+00	
123	1.698244e+04	1.000000e+00,	0.000000e+00	
124	1.737801e+04	1.000000e+00,	0.000000e+00	
125	1.778279e+04	1.000000e+00,	0.000000e+00	
126	1.819701e+04	1.000000e+00,	0.000000e+00	
127	1.862087e+04	1.000000e+00,	0.000000e+00	
128	1.905461e+04	1.000000e+00,	0.000000e+00	
129	1.949845e+04	1.000000e+00,	0.000000e+00	
130	1.995262e+04	1.000000e+00,	0.000000e+00	
131	2.041738e+04	1.000000e+00,	0.000000e+00	
132	2.089296e+04	1.000000e+00,	0.000000e+00	
133	2.137962e+04	1.000000e+00,	0.000000e+00	
134	2.187762e+04	1.000000e+00,	0.000000e+00	
135	2.238721e+04	1.000000e+00,	0.000000e+00	
136	2.290868e+04	1.000000e+00,	0.000000e+00	
137	2.344229e+04	1.000000e+00,	0.000000e+00	
138	2.398833e+04	1.000000e+00,	0.000000e+00	
139	2.454709e+04	1.000000e+00,	0.000000e+00	
140	2.511886e+04	1.000000e+00,	0.000000e+00	
141	2.570396e+04	1.000000e+00,	0.000000e+00	
142	2.630268e+04	1.000000e+00,	0.000000e+00	
143	2.691535e+04	1.000000e+00,	0.000000e+00	
144	2.754229e+04	1.000000e+00,	0.000000e+00	
145	2.818383e+04	1.000000e+00,	0.000000e+00	
146	2.884032e+04	1.000000e+00,	0.000000e+00	
147	2.951209e+04	1.000000e+00,	0.000000e+00	
148	3.019952e+04	1.000000e+00,	0.000000e+00	
149	3.090295e+04	1.000000e+00,	0.000000e+00	
150	3.162278e+04	1.000000e+00,	0.000000e+00	
151	3.235937e+04	1.000000e+00,	0.000000e+00	
152	3.311311e+04	1.000000e+00,	0.000000e+00	
153	3.388442e+04	1.000000e+00,	0.000000e+00	
154	3.467369e+04	1.000000e+00,	0.000000e+00	
155	3.548134e+04	1.000000e+00,	0.000000e+00	
156	3.630781e+04	1.000000e+00,	0.000000e+00	
157	3.715352e+04	1.000000e+00,	0.000000e+00	
158	3.801894e+04	1.000000e+00,	0.000000e+00	
159	3.890451e+04	1.000000e+00,	0.000000e+00	
160	3.981072e+04	1.000000e+00,	0.000000e+00	
161	4.073803e+04	1.000000e+00,	0.000000e+00	
162	4.168694e+04	1.000000e+00,	0.000000e+00	
163	4.265795e+04	1.000000e+00,	0.000000e+00	
164	4.365158e+04	1.000000e+00,	0.000000e+00	
165	4.466836e+04	1.000000e+00,	0.000000e+00	
166	4.570882e+04	1.000000e+00,	0.000000e+00	
167	4.677351e+04	1.000000e+00,	0.000000e+00	
168	4.786301e+04	1.000000e+00,	0.000000e+00	
169	4.897788e+04	1.000000e+00,	0.000000e+00	
170	5.011872e+04	1.000000e+00,	0.000000e+00	

Index   frequency       in1                             
--------------------------------------------------------------------------------
171	5.128614e+04	1.000000e+00,	0.000000e+00	
172	5.248075e+04	1.000000e+00,	0.000000e+00	
173	5.370318e+04	1.000000e+00,	0.000000e+00	
174	5.495409e+04	1.000000e+00,	0.000000e+00	
175	5.623413e+04	1.000000e+00,	0.000000e+00	
176	5.754399e+04	1.000000e+00,	0.000000e+00	
177	5.888437e+04	1.000000e+00,	0.000000e+00	
178	6.025596e+04	1.000000e+00,	0.000000e+00	
179	6.165950e+04	1.000000e+00,	0.000000e+00	
180	6.309573e+04	1.000000e+00,	0.000000e+00	
181	6.456542e+04	1.000000e+00,	0.000000e+00	
182	6.606934e+04	1.000000e+00,	0.000000e+00	
183	6.760830e+04	1.000000e+00,	0.000000e+00	
184	6.918310e+04	1.000000e+00,	0.000000e+00	
185	7.079458e+04	1.000000e+00,	0.000000e+00	
186	7.244360e+04	1.000000e+00,	0.000000e+00	
187	7.413102e+04	1.000000e+00,	0.000000e+00	
188	7.585776e+04	1.000000e+00,	0.000000e+00	
189	7.762471e+04	1.000000e+00,	0.000000e+00	
190	7.943282e+04	1.000000e+00,	0.000000e+00	
191	8.128305e+04	1.000000e+00,	0.000000e+00	
192	8.317638e+04	1.000000e+00,	0.000000e+00	
193	8.511380e+04	1.000000e+00,	0.000000e+00	
194	8.709636e+04	1.000000e+00,	0.000000e+00	
195	8.912509e+04	1.000000e+00,	0.000000e+00	
196	9.120108e+04	1.000000e+00,	0.000000e+00	
197	9.332543e+04	1.000000e+00,	0.000000e+00	
198	9.549926e+04	1.000000e+00,	0.000000e+00	
199	9.772372e+04	1.000000e+00,	0.000000e+00	
200	1.000000e+05	1.000000e+00,	0.000000e+00	
201	1.023293e+05	1.000000e+00,	0.000000e+00	
202	1.047129e+05	1.000000e+00,	0.000000e+00	
203	1.071519e+05	1.000000e+00,	0.000000e+00	
204	1.096478e+05	1.000000e+00,	0.000000e+00	
205	1.122018e+05	1.000000e+00,	0.000000e+00	
206	1.148154e+05	1.000000e+00,	0.000000e+00	
207	1.174898e+05	1.000000e+00,	0.000000e+00	
208	1.202264e+05	1.000000e+00,	0.000000e+00	
209	1.230269e+05	1.000000e+00,	0.000000e+00	
210	1.258925e+05	1.000000e+00,	0.000000e+00	
211	1.288250e+05	1.000000e+00,	0.000000e+00	
212	1.318257e+05	1.000000e+00,	0.000000e+00	
213	1.348963e+05	1.000000e+00,	0.000000e+00	
214	1.380384e+05	1.000000e+00,	0.000000e+00	
215	1.412538e+05	1.000000e+00,	0.000000e+00	
216	1.445440e+05	1.000000e+00,	0.000000e+00	
217	1.479108e+05	1.000000e+00,	0.000000e+00	
218	1.513561e+05	1.000000e+00,	0.000000e+00	
219	1.548817e+05	1.000000e+00,	0.000000e+00	
220	1.584893e+05	1.000000e+00,	0.000000e+00	
221	1.621810e+05	1.000000e+00,	0.000000e+00	
222	1.659587e+05	1.000000e+00,	0.000000e+00	
223	1.698244e+05	1.000000e+00,	0.000000e+00	
224	1.737801e+05	1.000000e+00,	0.000000e+00	
225	1.778279e+05	1.000000e+00,	0.000000e+00	
226	1.819701e+05	1.000000e+00,	0.000000e+00	
227	1.862087e+05	1.000000e+00,	0.000000e+00	
228	1.905461e+05	1.000000e+00,	0.000000e+00	

Index   frequency       in1                             
--------------------------------------------------------------------------------
229	1.949845e+05	1.000000e+00,	0.000000e+00	
230	1.995262e+05	1.000000e+00,	0.000000e+00	
231	2.041738e+05	1.000000e+00,	0.000000e+00	
232	2.089296e+05	1.000000e+00,	0.000000e+00	
233	2.137962e+05	1.000000e+00,	0.000000e+00	
234	2.187762e+05	1.000000e+00,	0.000000e+00	
235	2.238721e+05	1.000000e+00,	0.000000e+00	
236	2.290868e+05	1.000000e+00,	0.000000e+00	
237	2.344229e+05	1.000000e+00,	0.000000e+00	
238	2.398833e+05	1.000000e+00,	0.000000e+00	
239	2.454709e+05	1.000000e+00,	0.000000e+00	
240	2.511886e+05	1.000000e+00,	0.000000e+00	
241	2.570396e+05	1.000000e+00,	0.000000e+00	
242	2.630268e+05	1.000000e+00,	0.000000e+00	
243	2.691535e+05	1.000000e+00,	0.000000e+00	
244	2.754229e+05	1.000000e+00,	0.000000e+00	
245	2.818383e+05	1.000000e+00,	0.000000e+00	
246	2.884032e+05	1.000000e+00,	0.000000e+00	
247	2.951209e+05	1.000000e+00,	0.000000e+00	
248	3.019952e+05	1.000000e+00,	0.000000e+00	
249	3.090295e+05	1.000000e+00,	0.000000e+00	
250	3.162278e+05	1.000000e+00,	0.000000e+00	
251	3.235937e+05	1.000000e+00,	0.000000e+00	
252	3.311311e+05	1.000000e+00,	0.000000e+00	
253	3.388442e+05	1.000000e+00,	0.000000e+00	
254	3.467369e+05	1.000000e+00,	0.000000e+00	
255	3.548134e+05	1.000000e+00,	0.000000e+00	
256	3.630781e+05	1.000000e+00,	0.000000e+00	
257	3.715352e+05	1.000000e+00,	0.000000e+00	
258	3.801894e+05	1.000000e+00,	0.000000e+00	
259	3.890451e+05	1.000000e+00,	0.000000e+00	
260	3.981072e+05	1.000000e+00,	0.000000e+00	
261	4.073803e+05	1.000000e+00,	0.000000e+00	
262	4.168694e+05	1.000000e+00,	0.000000e+00	
263	4.265795e+05	1.000000e+00,	0.000000e+00	
264	4.365158e+05	1.000000e+00,	0.000000e+00	
265	4.466836e+05	1.000000e+00,	0.000000e+00	
266	4.570882e+05	1.000000e+00,	0.000000e+00	
267	4.677351e+05	1.000000e+00,	0.000000e+00	
268	4.786301e+05	1.000000e+00,	0.000000e+00	
269	4.897788e+05	1.000000e+00,	0.000000e+00	
270	5.011872e+05	1.000000e+00,	0.000000e+00	
271	5.128614e+05	1.000000e+00,	0.000000e+00	
272	5.248075e+05	1.000000e+00,	0.000000e+00	
273	5.370318e+05	1.000000e+00,	0.000000e+00	
274	5.495409e+05	1.000000e+00,	0.000000e+00	
275	5.623413e+05	1.000000e+00,	0.000000e+00	
276	5.754399e+05	1.000000e+00,	0.000000e+00	
277	5.888437e+05	1.000000e+00,	0.000000e+00	
278	6.025596e+05	1.000000e+00,	0.000000e+00	
279	6.165950e+05	1.000000e+00,	0.000000e+00	
280	6.309573e+05	1.000000e+00,	0.000000e+00	
281	6.456542e+05	1.000000e+00,	0.000000e+00	
282	6.606934e+05	1.000000e+00,	0.000000e+00	
283	6.760830e+05	1.000000e+00,	0.000000e+00	
284	6.918310e+05	1.000000e+00,	0.000000e+00	
285	7.079458e+05	1.000000e+00,	0.000000e+00	
286	7.244360e+05	1.000000e+00,	0.000000e+00	

Index   frequency       in1                             
--------------------------------------------------------------------------------
287	7.413102e+05	1.000000e+00,	0.000000e+00	
288	7.585776e+05	1.000000e+00,	0.000000e+00	
289	7.762471e+05	1.000000e+00,	0.000000e+00	
290	7.943282e+05	1.000000e+00,	0.000000e+00	
291	8.128305e+05	1.000000e+00,	0.000000e+00	
292	8.317638e+05	1.000000e+00,	0.000000e+00	
293	8.511380e+05	1.000000e+00,	0.000000e+00	
294	8.709636e+05	1.000000e+00,	0.000000e+00	
295	8.912509e+05	1.000000e+00,	0.000000e+00	
296	9.120108e+05	1.000000e+00,	0.000000e+00	
297	9.332543e+05	1.000000e+00,	0.000000e+00	
298	9.549926e+05	1.000000e+00,	0.000000e+00	
299	9.772372e+05	1.000000e+00,	0.000000e+00	
300	1.000000e+06	1.000000e+00,	0.000000e+00	
301	1.023293e+06	1.000000e+00,	0.000000e+00	
302	1.047129e+06	1.000000e+00,	0.000000e+00	
303	1.071519e+06	1.000000e+00,	0.000000e+00	
304	1.096478e+06	1.000000e+00,	0.000000e+00	
305	1.122018e+06	1.000000e+00,	0.000000e+00	
306	1.148154e+06	1.000000e+00,	0.000000e+00	
307	1.174898e+06	1.000000e+00,	0.000000e+00	
308	1.202264e+06	1.000000e+00,	0.000000e+00	
309	1.230269e+06	1.000000e+00,	0.000000e+00	
310	1.258925e+06	1.000000e+00,	0.000000e+00	
311	1.288250e+06	1.000000e+00,	0.000000e+00	
312	1.318257e+06	1.000000e+00,	0.000000e+00	
313	1.348963e+06	1.000000e+00,	0.000000e+00	
314	1.380384e+06	1.000000e+00,	0.000000e+00	
315	1.412538e+06	1.000000e+00,	0.000000e+00	
316	1.445440e+06	1.000000e+00,	0.000000e+00	
317	1.479108e+06	1.000000e+00,	0.000000e+00	
318	1.513561e+06	1.000000e+00,	0.000000e+00	
319	1.548817e+06	1.000000e+00,	0.000000e+00	
320	1.584893e+06	1.000000e+00,	0.000000e+00	
321	1.621810e+06	1.000000e+00,	0.000000e+00	
322	1.659587e+06	1.000000e+00,	0.000000e+00	
323	1.698244e+06	1.000000e+00,	0.000000e+00	
324	1.737801e+06	1.000000e+00,	0.000000e+00	
325	1.778279e+06	1.000000e+00,	0.000000e+00	
326	1.819701e+06	1.000000e+00,	0.000000e+00	
327	1.862087e+06	1.000000e+00,	0.000000e+00	
328	1.905461e+06	1.000000e+00,	0.000000e+00	
329	1.949845e+06	1.000000e+00,	0.000000e+00	
330	1.995262e+06	1.000000e+00,	0.000000e+00	
331	2.041738e+06	1.000000e+00,	0.000000e+00	
332	2.089296e+06	1.000000e+00,	0.000000e+00	
333	2.137962e+06	1.000000e+00,	0.000000e+00	
334	2.187762e+06	1.000000e+00,	0.000000e+00	
335	2.238721e+06	1.000000e+00,	0.000000e+00	
336	2.290868e+06	1.000000e+00,	0.000000e+00	
337	2.344229e+06	1.000000e+00,	0.000000e+00	
338	2.398833e+06	1.000000e+00,	0.000000e+00	
339	2.454709e+06	1.000000e+00,	0.000000e+00	
340	2.511886e+06	1.000000e+00,	0.000000e+00	
341	2.570396e+06	1.000000e+00,	0.000000e+00	
342	2.630268e+06	1.000000e+00,	0.000000e+00	
343	2.691535e+06	1.000000e+00,	0.000000e+00	
344	2.754229e+06	1.000000e+00,	0.000000e+00	

Index   frequency       in1                             
--------------------------------------------------------------------------------
345	2.818383e+06	1.000000e+00,	0.000000e+00	
346	2.884032e+06	1.000000e+00,	0.000000e+00	
347	2.951209e+06	1.000000e+00,	0.000000e+00	
348	3.019952e+06	1.000000e+00,	0.000000e+00	
349	3.090295e+06	1.000000e+00,	0.000000e+00	
350	3.162278e+06	1.000000e+00,	0.000000e+00	
351	3.235937e+06	1.000000e+00,	0.000000e+00	
352	3.311311e+06	1.000000e+00,	0.000000e+00	
353	3.388442e+06	1.000000e+00,	0.000000e+00	
354	3.467369e+06	1.000000e+00,	0.000000e+00	
355	3.548134e+06	1.000000e+00,	0.000000e+00	
356	3.630781e+06	1.000000e+00,	0.000000e+00	
357	3.715352e+06	1.000000e+00,	0.000000e+00	
358	3.801894e+06	1.000000e+00,	0.000000e+00	
359	3.890451e+06	1.000000e+00,	0.000000e+00	
360	3.981072e+06	1.000000e+00,	0.000000e+00	
361	4.073803e+06	1.000000e+00,	0.000000e+00	
362	4.168694e+06	1.000000e+00,	0.000000e+00	
363	4.265795e+06	1.000000e+00,	0.000000e+00	
364	4.365158e+06	1.000000e+00,	0.000000e+00	
365	4.466836e+06	1.000000e+00,	0.000000e+00	
366	4.570882e+06	1.000000e+00,	0.000000e+00	
367	4.677351e+06	1.000000e+00,	0.000000e+00	
368	4.786301e+06	1.000000e+00,	0.000000e+00	
369	4.897788e+06	1.000000e+00,	0.000000e+00	
370	5.011872e+06	1.000000e+00,	0.000000e+00	
371	5.128614e+06	1.000000e+00,	0.000000e+00	
372	5.248075e+06	1.000000e+00,	0.000000e+00	
373	5.370318e+06	1.000000e+00,	0.000000e+00	
374	5.495409e+06	1.000000e+00,	0.000000e+00	
375	5.623413e+06	1.000000e+00,	0.000000e+00	
376	5.754399e+06	1.000000e+00,	0.000000e+00	
377	5.888437e+06	1.000000e+00,	0.000000e+00	
378	6.025596e+06	1.000000e+00,	0.000000e+00	
379	6.165950e+06	1.000000e+00,	0.000000e+00	
380	6.309573e+06	1.000000e+00,	0.000000e+00	
381	6.456542e+06	1.000000e+00,	0.000000e+00	
382	6.606934e+06	1.000000e+00,	0.000000e+00	
383	6.760830e+06	1.000000e+00,	0.000000e+00	
384	6.918310e+06	1.000000e+00,	0.000000e+00	
385	7.079458e+06	1.000000e+00,	0.000000e+00	
386	7.244360e+06	1.000000e+00,	0.000000e+00	
387	7.413102e+06	1.000000e+00,	0.000000e+00	
388	7.585776e+06	1.000000e+00,	0.000000e+00	
389	7.762471e+06	1.000000e+00,	0.000000e+00	
390	7.943282e+06	1.000000e+00,	0.000000e+00	
391	8.128305e+06	1.000000e+00,	0.000000e+00	
392	8.317638e+06	1.000000e+00,	0.000000e+00	
393	8.511380e+06	1.000000e+00,	0.000000e+00	
394	8.709636e+06	1.000000e+00,	0.000000e+00	
395	8.912509e+06	1.000000e+00,	0.000000e+00	
396	9.120108e+06	1.000000e+00,	0.000000e+00	
397	9.332543e+06	1.000000e+00,	0.000000e+00	
398	9.549926e+06	1.000000e+00,	0.000000e+00	
399	9.772372e+06	1.000000e+00,	0.000000e+00	
400	1.000000e+07	1.000000e+00,	0.000000e+00	
401	1.023293e+07	1.000000e+00,	0.000000e+00	
402	1.047129e+07	1.000000e+00,	0.000000e+00	

Index   frequency       in1                             
--------------------------------------------------------------------------------
403	1.071519e+07	1.000000e+00,	0.000000e+00	
404	1.096478e+07	1.000000e+00,	0.000000e+00	
405	1.122018e+07	1.000000e+00,	0.000000e+00	
406	1.148154e+07	1.000000e+00,	0.000000e+00	
407	1.174898e+07	1.000000e+00,	0.000000e+00	
408	1.202264e+07	1.000000e+00,	0.000000e+00	
409	1.230269e+07	1.000000e+00,	0.000000e+00	
410	1.258925e+07	1.000000e+00,	0.000000e+00	
411	1.288250e+07	1.000000e+00,	0.000000e+00	
412	1.318257e+07	1.000000e+00,	0.000000e+00	
413	1.348963e+07	1.000000e+00,	0.000000e+00	
414	1.380384e+07	1.000000e+00,	0.000000e+00	
415	1.412538e+07	1.000000e+00,	0.000000e+00	
416	1.445440e+07	1.000000e+00,	0.000000e+00	
417	1.479108e+07	1.000000e+00,	0.000000e+00	
418	1.513561e+07	1.000000e+00,	0.000000e+00	
419	1.548817e+07	1.000000e+00,	0.000000e+00	
420	1.584893e+07	1.000000e+00,	0.000000e+00	
421	1.621810e+07	1.000000e+00,	0.000000e+00	
422	1.659587e+07	1.000000e+00,	0.000000e+00	
423	1.698244e+07	1.000000e+00,	0.000000e+00	
424	1.737801e+07	1.000000e+00,	0.000000e+00	
425	1.778279e+07	1.000000e+00,	0.000000e+00	
426	1.819701e+07	1.000000e+00,	0.000000e+00	
427	1.862087e+07	1.000000e+00,	0.000000e+00	
428	1.905461e+07	1.000000e+00,	0.000000e+00	
429	1.949845e+07	1.000000e+00,	0.000000e+00	
430	1.995262e+07	1.000000e+00,	0.000000e+00	
431	2.041738e+07	1.000000e+00,	0.000000e+00	
432	2.089296e+07	1.000000e+00,	0.000000e+00	
433	2.137962e+07	1.000000e+00,	0.000000e+00	
434	2.187762e+07	1.000000e+00,	0.000000e+00	
435	2.238721e+07	1.000000e+00,	0.000000e+00	
436	2.290868e+07	1.000000e+00,	0.000000e+00	
437	2.344229e+07	1.000000e+00,	0.000000e+00	
438	2.398833e+07	1.000000e+00,	0.000000e+00	
439	2.454709e+07	1.000000e+00,	0.000000e+00	
440	2.511886e+07	1.000000e+00,	0.000000e+00	
441	2.570396e+07	1.000000e+00,	0.000000e+00	
442	2.630268e+07	1.000000e+00,	0.000000e+00	
443	2.691535e+07	1.000000e+00,	0.000000e+00	
444	2.754229e+07	1.000000e+00,	0.000000e+00	
445	2.818383e+07	1.000000e+00,	0.000000e+00	
446	2.884032e+07	1.000000e+00,	0.000000e+00	
447	2.951209e+07	1.000000e+00,	0.000000e+00	
448	3.019952e+07	1.000000e+00,	0.000000e+00	
449	3.090295e+07	1.000000e+00,	0.000000e+00	
450	3.162278e+07	1.000000e+00,	0.000000e+00	
451	3.235937e+07	1.000000e+00,	0.000000e+00	
452	3.311311e+07	1.000000e+00,	0.000000e+00	
453	3.388442e+07	1.000000e+00,	0.000000e+00	
454	3.467369e+07	1.000000e+00,	0.000000e+00	
455	3.548134e+07	1.000000e+00,	0.000000e+00	
456	3.630781e+07	1.000000e+00,	0.000000e+00	
457	3.715352e+07	1.000000e+00,	0.000000e+00	
458	3.801894e+07	1.000000e+00,	0.000000e+00	
459	3.890451e+07	1.000000e+00,	0.000000e+00	
460	3.981072e+07	1.000000e+00,	0.000000e+00	

Index   frequency       in1                             
--------------------------------------------------------------------------------
461	4.073803e+07	1.000000e+00,	0.000000e+00	
462	4.168694e+07	1.000000e+00,	0.000000e+00	
463	4.265795e+07	1.000000e+00,	0.000000e+00	
464	4.365158e+07	1.000000e+00,	0.000000e+00	
465	4.466836e+07	1.000000e+00,	0.000000e+00	
466	4.570882e+07	1.000000e+00,	0.000000e+00	
467	4.677351e+07	1.000000e+00,	0.000000e+00	
468	4.786301e+07	1.000000e+00,	0.000000e+00	
469	4.897788e+07	1.000000e+00,	0.000000e+00	
470	5.011872e+07	1.000000e+00,	0.000000e+00	
471	5.128614e+07	1.000000e+00,	0.000000e+00	
472	5.248075e+07	1.000000e+00,	0.000000e+00	
473	5.370318e+07	1.000000e+00,	0.000000e+00	
474	5.495409e+07	1.000000e+00,	0.000000e+00	
475	5.623413e+07	1.000000e+00,	0.000000e+00	
476	5.754399e+07	1.000000e+00,	0.000000e+00	
477	5.888437e+07	1.000000e+00,	0.000000e+00	
478	6.025596e+07	1.000000e+00,	0.000000e+00	
479	6.165950e+07	1.000000e+00,	0.000000e+00	
480	6.309573e+07	1.000000e+00,	0.000000e+00	
481	6.456542e+07	1.000000e+00,	0.000000e+00	
482	6.606934e+07	1.000000e+00,	0.000000e+00	
483	6.760830e+07	1.000000e+00,	0.000000e+00	
484	6.918310e+07	1.000000e+00,	0.000000e+00	
485	7.079458e+07	1.000000e+00,	0.000000e+00	
486	7.244360e+07	1.000000e+00,	0.000000e+00	
487	7.413102e+07	1.000000e+00,	0.000000e+00	
488	7.585776e+07	1.000000e+00,	0.000000e+00	
489	7.762471e+07	1.000000e+00,	0.000000e+00	
490	7.943282e+07	1.000000e+00,	0.000000e+00	
491	8.128305e+07	1.000000e+00,	0.000000e+00	
492	8.317638e+07	1.000000e+00,	0.000000e+00	
493	8.511380e+07	1.000000e+00,	0.000000e+00	
494	8.709636e+07	1.000000e+00,	0.000000e+00	
495	8.912509e+07	1.000000e+00,	0.000000e+00	
496	9.120108e+07	1.000000e+00,	0.000000e+00	
497	9.332543e+07	1.000000e+00,	0.000000e+00	
498	9.549926e+07	1.000000e+00,	0.000000e+00	
499	9.772372e+07	1.000000e+00,	0.000000e+00	
500	1.000000e+08	1.000000e+00,	0.000000e+00	
501	1.023293e+08	1.000000e+00,	0.000000e+00	
502	1.047129e+08	1.000000e+00,	0.000000e+00	
503	1.071519e+08	1.000000e+00,	0.000000e+00	
504	1.096478e+08	1.000000e+00,	0.000000e+00	
505	1.122018e+08	1.000000e+00,	0.000000e+00	
506	1.148154e+08	1.000000e+00,	0.000000e+00	
507	1.174898e+08	1.000000e+00,	0.000000e+00	
508	1.202264e+08	1.000000e+00,	0.000000e+00	
509	1.230269e+08	1.000000e+00,	0.000000e+00	
510	1.258925e+08	1.000000e+00,	0.000000e+00	
511	1.288250e+08	1.000000e+00,	0.000000e+00	
512	1.318257e+08	1.000000e+00,	0.000000e+00	
513	1.348963e+08	1.000000e+00,	0.000000e+00	
514	1.380384e+08	1.000000e+00,	0.000000e+00	
515	1.412538e+08	1.000000e+00,	0.000000e+00	
516	1.445440e+08	1.000000e+00,	0.000000e+00	
517	1.479108e+08	1.000000e+00,	0.000000e+00	
518	1.513561e+08	1.000000e+00,	0.000000e+00	

Index   frequency       in1                             
--------------------------------------------------------------------------------
519	1.548817e+08	1.000000e+00,	0.000000e+00	
520	1.584893e+08	1.000000e+00,	0.000000e+00	
521	1.621810e+08	1.000000e+00,	0.000000e+00	
522	1.659587e+08	1.000000e+00,	0.000000e+00	
523	1.698244e+08	1.000000e+00,	0.000000e+00	
524	1.737801e+08	1.000000e+00,	0.000000e+00	
525	1.778279e+08	1.000000e+00,	0.000000e+00	
526	1.819701e+08	1.000000e+00,	0.000000e+00	
527	1.862087e+08	1.000000e+00,	0.000000e+00	
528	1.905461e+08	1.000000e+00,	0.000000e+00	
529	1.949845e+08	1.000000e+00,	0.000000e+00	
530	1.995262e+08	1.000000e+00,	0.000000e+00	
531	2.041738e+08	1.000000e+00,	0.000000e+00	
532	2.089296e+08	1.000000e+00,	0.000000e+00	
533	2.137962e+08	1.000000e+00,	0.000000e+00	
534	2.187762e+08	1.000000e+00,	0.000000e+00	
535	2.238721e+08	1.000000e+00,	0.000000e+00	
536	2.290868e+08	1.000000e+00,	0.000000e+00	
537	2.344229e+08	1.000000e+00,	0.000000e+00	
538	2.398833e+08	1.000000e+00,	0.000000e+00	
539	2.454709e+08	1.000000e+00,	0.000000e+00	
540	2.511886e+08	1.000000e+00,	0.000000e+00	
541	2.570396e+08	1.000000e+00,	0.000000e+00	
542	2.630268e+08	1.000000e+00,	0.000000e+00	
543	2.691535e+08	1.000000e+00,	0.000000e+00	
544	2.754229e+08	1.000000e+00,	0.000000e+00	
545	2.818383e+08	1.000000e+00,	0.000000e+00	
546	2.884032e+08	1.000000e+00,	0.000000e+00	
547	2.951209e+08	1.000000e+00,	0.000000e+00	
548	3.019952e+08	1.000000e+00,	0.000000e+00	
549	3.090295e+08	1.000000e+00,	0.000000e+00	
550	3.162278e+08	1.000000e+00,	0.000000e+00	
551	3.235937e+08	1.000000e+00,	0.000000e+00	
552	3.311311e+08	1.000000e+00,	0.000000e+00	
553	3.388442e+08	1.000000e+00,	0.000000e+00	
554	3.467369e+08	1.000000e+00,	0.000000e+00	
555	3.548134e+08	1.000000e+00,	0.000000e+00	
556	3.630781e+08	1.000000e+00,	0.000000e+00	
557	3.715352e+08	1.000000e+00,	0.000000e+00	
558	3.801894e+08	1.000000e+00,	0.000000e+00	
559	3.890451e+08	1.000000e+00,	0.000000e+00	
560	3.981072e+08	1.000000e+00,	0.000000e+00	
561	4.073803e+08	1.000000e+00,	0.000000e+00	
562	4.168694e+08	1.000000e+00,	0.000000e+00	
563	4.265795e+08	1.000000e+00,	0.000000e+00	
564	4.365158e+08	1.000000e+00,	0.000000e+00	
565	4.466836e+08	1.000000e+00,	0.000000e+00	
566	4.570882e+08	1.000000e+00,	0.000000e+00	
567	4.677351e+08	1.000000e+00,	0.000000e+00	
568	4.786301e+08	1.000000e+00,	0.000000e+00	
569	4.897788e+08	1.000000e+00,	0.000000e+00	
570	5.011872e+08	1.000000e+00,	0.000000e+00	
571	5.128614e+08	1.000000e+00,	0.000000e+00	
572	5.248075e+08	1.000000e+00,	0.000000e+00	
573	5.370318e+08	1.000000e+00,	0.000000e+00	
574	5.495409e+08	1.000000e+00,	0.000000e+00	
575	5.623413e+08	1.000000e+00,	0.000000e+00	
576	5.754399e+08	1.000000e+00,	0.000000e+00	

Index   frequency       in1                             
--------------------------------------------------------------------------------
577	5.888437e+08	1.000000e+00,	0.000000e+00	
578	6.025596e+08	1.000000e+00,	0.000000e+00	
579	6.165950e+08	1.000000e+00,	0.000000e+00	
580	6.309573e+08	1.000000e+00,	0.000000e+00	
581	6.456542e+08	1.000000e+00,	0.000000e+00	
582	6.606934e+08	1.000000e+00,	0.000000e+00	
583	6.760830e+08	1.000000e+00,	0.000000e+00	
584	6.918310e+08	1.000000e+00,	0.000000e+00	
585	7.079458e+08	1.000000e+00,	0.000000e+00	
586	7.244360e+08	1.000000e+00,	0.000000e+00	
587	7.413102e+08	1.000000e+00,	0.000000e+00	
588	7.585776e+08	1.000000e+00,	0.000000e+00	
589	7.762471e+08	1.000000e+00,	0.000000e+00	
590	7.943282e+08	1.000000e+00,	0.000000e+00	
591	8.128305e+08	1.000000e+00,	0.000000e+00	
592	8.317638e+08	1.000000e+00,	0.000000e+00	
593	8.511380e+08	1.000000e+00,	0.000000e+00	
594	8.709636e+08	1.000000e+00,	0.000000e+00	
595	8.912509e+08	1.000000e+00,	0.000000e+00	
596	9.120108e+08	1.000000e+00,	0.000000e+00	
597	9.332543e+08	1.000000e+00,	0.000000e+00	
598	9.549926e+08	1.000000e+00,	0.000000e+00	
599	9.772372e+08	1.000000e+00,	0.000000e+00	
600	1.000000e+09	1.000000e+00,	0.000000e+00	

           * transmission gate ac characterization - ngspice version
           AC Analysis  Tue Jan  6 18:25:29  2026
--------------------------------------------------------------------------------
Index   frequency       in2                             
--------------------------------------------------------------------------------
0	1.000000e+03	1.000000e+00,	0.000000e+00	
1	1.023293e+03	1.000000e+00,	0.000000e+00	
2	1.047129e+03	1.000000e+00,	0.000000e+00	
3	1.071519e+03	1.000000e+00,	0.000000e+00	
4	1.096478e+03	1.000000e+00,	0.000000e+00	
5	1.122018e+03	1.000000e+00,	0.000000e+00	
6	1.148154e+03	1.000000e+00,	0.000000e+00	
7	1.174898e+03	1.000000e+00,	0.000000e+00	
8	1.202264e+03	1.000000e+00,	0.000000e+00	
9	1.230269e+03	1.000000e+00,	0.000000e+00	
10	1.258925e+03	1.000000e+00,	0.000000e+00	
11	1.288250e+03	1.000000e+00,	0.000000e+00	
12	1.318257e+03	1.000000e+00,	0.000000e+00	
13	1.348963e+03	1.000000e+00,	0.000000e+00	
14	1.380384e+03	1.000000e+00,	0.000000e+00	
15	1.412538e+03	1.000000e+00,	0.000000e+00	
16	1.445440e+03	1.000000e+00,	0.000000e+00	
17	1.479108e+03	1.000000e+00,	0.000000e+00	
18	1.513561e+03	1.000000e+00,	0.000000e+00	
19	1.548817e+03	1.000000e+00,	0.000000e+00	
20	1.584893e+03	1.000000e+00,	0.000000e+00	
21	1.621810e+03	1.000000e+00,	0.000000e+00	
22	1.659587e+03	1.000000e+00,	0.000000e+00	
23	1.698244e+03	1.000000e+00,	0.000000e+00	
24	1.737801e+03	1.000000e+00,	0.000000e+00	
25	1.778279e+03	1.000000e+00,	0.000000e+00	
26	1.819701e+03	1.000000e+00,	0.000000e+00	
27	1.862087e+03	1.000000e+00,	0.000000e+00	
28	1.905461e+03	1.000000e+00,	0.000000e+00	
29	1.949845e+03	1.000000e+00,	0.000000e+00	
30	1.995262e+03	1.000000e+00,	0.000000e+00	
31	2.041738e+03	1.000000e+00,	0.000000e+00	
32	2.089296e+03	1.000000e+00,	0.000000e+00	
33	2.137962e+03	1.000000e+00,	0.000000e+00	
34	2.187762e+03	1.000000e+00,	0.000000e+00	
35	2.238721e+03	1.000000e+00,	0.000000e+00	
36	2.290868e+03	1.000000e+00,	0.000000e+00	
37	2.344229e+03	1.000000e+00,	0.000000e+00	
38	2.398833e+03	1.000000e+00,	0.000000e+00	
39	2.454709e+03	1.000000e+00,	0.000000e+00	
40	2.511886e+03	1.000000e+00,	0.000000e+00	
41	2.570396e+03	1.000000e+00,	0.000000e+00	
42	2.630268e+03	1.000000e+00,	0.000000e+00	
43	2.691535e+03	1.000000e+00,	0.000000e+00	
44	2.754229e+03	1.000000e+00,	0.000000e+00	
45	2.818383e+03	1.000000e+00,	0.000000e+00	
46	2.884032e+03	1.000000e+00,	0.000000e+00	
47	2.951209e+03	1.000000e+00,	0.000000e+00	
48	3.019952e+03	1.000000e+00,	0.000000e+00	
49	3.090295e+03	1.000000e+00,	0.000000e+00	
50	3.162278e+03	1.000000e+00,	0.000000e+00	
51	3.235937e+03	1.000000e+00,	0.000000e+00	
52	3.311311e+03	1.000000e+00,	0.000000e+00	
53	3.388442e+03	1.000000e+00,	0.000000e+00	
54	3.467369e+03	1.000000e+00,	0.000000e+00	

Index   frequency       in2                             
--------------------------------------------------------------------------------
55	3.548134e+03	1.000000e+00,	0.000000e+00	
56	3.630781e+03	1.000000e+00,	0.000000e+00	
57	3.715352e+03	1.000000e+00,	0.000000e+00	
58	3.801894e+03	1.000000e+00,	0.000000e+00	
59	3.890451e+03	1.000000e+00,	0.000000e+00	
60	3.981072e+03	1.000000e+00,	0.000000e+00	
61	4.073803e+03	1.000000e+00,	0.000000e+00	
62	4.168694e+03	1.000000e+00,	0.000000e+00	
63	4.265795e+03	1.000000e+00,	0.000000e+00	
64	4.365158e+03	1.000000e+00,	0.000000e+00	
65	4.466836e+03	1.000000e+00,	0.000000e+00	
66	4.570882e+03	1.000000e+00,	0.000000e+00	
67	4.677351e+03	1.000000e+00,	0.000000e+00	
68	4.786301e+03	1.000000e+00,	0.000000e+00	
69	4.897788e+03	1.000000e+00,	0.000000e+00	
70	5.011872e+03	1.000000e+00,	0.000000e+00	
71	5.128614e+03	1.000000e+00,	0.000000e+00	
72	5.248075e+03	1.000000e+00,	0.000000e+00	
73	5.370318e+03	1.000000e+00,	0.000000e+00	
74	5.495409e+03	1.000000e+00,	0.000000e+00	
75	5.623413e+03	1.000000e+00,	0.000000e+00	
76	5.754399e+03	1.000000e+00,	0.000000e+00	
77	5.888437e+03	1.000000e+00,	0.000000e+00	
78	6.025596e+03	1.000000e+00,	0.000000e+00	
79	6.165950e+03	1.000000e+00,	0.000000e+00	
80	6.309573e+03	1.000000e+00,	0.000000e+00	
81	6.456542e+03	1.000000e+00,	0.000000e+00	
82	6.606934e+03	1.000000e+00,	0.000000e+00	
83	6.760830e+03	1.000000e+00,	0.000000e+00	
84	6.918310e+03	1.000000e+00,	0.000000e+00	
85	7.079458e+03	1.000000e+00,	0.000000e+00	
86	7.244360e+03	1.000000e+00,	0.000000e+00	
87	7.413102e+03	1.000000e+00,	0.000000e+00	
88	7.585776e+03	1.000000e+00,	0.000000e+00	
89	7.762471e+03	1.000000e+00,	0.000000e+00	
90	7.943282e+03	1.000000e+00,	0.000000e+00	
91	8.128305e+03	1.000000e+00,	0.000000e+00	
92	8.317638e+03	1.000000e+00,	0.000000e+00	
93	8.511380e+03	1.000000e+00,	0.000000e+00	
94	8.709636e+03	1.000000e+00,	0.000000e+00	
95	8.912509e+03	1.000000e+00,	0.000000e+00	
96	9.120108e+03	1.000000e+00,	0.000000e+00	
97	9.332543e+03	1.000000e+00,	0.000000e+00	
98	9.549926e+03	1.000000e+00,	0.000000e+00	
99	9.772372e+03	1.000000e+00,	0.000000e+00	
100	1.000000e+04	1.000000e+00,	0.000000e+00	
101	1.023293e+04	1.000000e+00,	0.000000e+00	
102	1.047129e+04	1.000000e+00,	0.000000e+00	
103	1.071519e+04	1.000000e+00,	0.000000e+00	
104	1.096478e+04	1.000000e+00,	0.000000e+00	
105	1.122018e+04	1.000000e+00,	0.000000e+00	
106	1.148154e+04	1.000000e+00,	0.000000e+00	
107	1.174898e+04	1.000000e+00,	0.000000e+00	
108	1.202264e+04	1.000000e+00,	0.000000e+00	
109	1.230269e+04	1.000000e+00,	0.000000e+00	
110	1.258925e+04	1.000000e+00,	0.000000e+00	
111	1.288250e+04	1.000000e+00,	0.000000e+00	
112	1.318257e+04	1.000000e+00,	0.000000e+00	

Index   frequency       in2                             
--------------------------------------------------------------------------------
113	1.348963e+04	1.000000e+00,	0.000000e+00	
114	1.380384e+04	1.000000e+00,	0.000000e+00	
115	1.412538e+04	1.000000e+00,	0.000000e+00	
116	1.445440e+04	1.000000e+00,	0.000000e+00	
117	1.479108e+04	1.000000e+00,	0.000000e+00	
118	1.513561e+04	1.000000e+00,	0.000000e+00	
119	1.548817e+04	1.000000e+00,	0.000000e+00	
120	1.584893e+04	1.000000e+00,	0.000000e+00	
121	1.621810e+04	1.000000e+00,	0.000000e+00	
122	1.659587e+04	1.000000e+00,	0.000000e+00	
123	1.698244e+04	1.000000e+00,	0.000000e+00	
124	1.737801e+04	1.000000e+00,	0.000000e+00	
125	1.778279e+04	1.000000e+00,	0.000000e+00	
126	1.819701e+04	1.000000e+00,	0.000000e+00	
127	1.862087e+04	1.000000e+00,	0.000000e+00	
128	1.905461e+04	1.000000e+00,	0.000000e+00	
129	1.949845e+04	1.000000e+00,	0.000000e+00	
130	1.995262e+04	1.000000e+00,	0.000000e+00	
131	2.041738e+04	1.000000e+00,	0.000000e+00	
132	2.089296e+04	1.000000e+00,	0.000000e+00	
133	2.137962e+04	1.000000e+00,	0.000000e+00	
134	2.187762e+04	1.000000e+00,	0.000000e+00	
135	2.238721e+04	1.000000e+00,	0.000000e+00	
136	2.290868e+04	1.000000e+00,	0.000000e+00	
137	2.344229e+04	1.000000e+00,	0.000000e+00	
138	2.398833e+04	1.000000e+00,	0.000000e+00	
139	2.454709e+04	1.000000e+00,	0.000000e+00	
140	2.511886e+04	1.000000e+00,	0.000000e+00	
141	2.570396e+04	1.000000e+00,	0.000000e+00	
142	2.630268e+04	1.000000e+00,	0.000000e+00	
143	2.691535e+04	1.000000e+00,	0.000000e+00	
144	2.754229e+04	1.000000e+00,	0.000000e+00	
145	2.818383e+04	1.000000e+00,	0.000000e+00	
146	2.884032e+04	1.000000e+00,	0.000000e+00	
147	2.951209e+04	1.000000e+00,	0.000000e+00	
148	3.019952e+04	1.000000e+00,	0.000000e+00	
149	3.090295e+04	1.000000e+00,	0.000000e+00	
150	3.162278e+04	1.000000e+00,	0.000000e+00	
151	3.235937e+04	1.000000e+00,	0.000000e+00	
152	3.311311e+04	1.000000e+00,	0.000000e+00	
153	3.388442e+04	1.000000e+00,	0.000000e+00	
154	3.467369e+04	1.000000e+00,	0.000000e+00	
155	3.548134e+04	1.000000e+00,	0.000000e+00	
156	3.630781e+04	1.000000e+00,	0.000000e+00	
157	3.715352e+04	1.000000e+00,	0.000000e+00	
158	3.801894e+04	1.000000e+00,	0.000000e+00	
159	3.890451e+04	1.000000e+00,	0.000000e+00	
160	3.981072e+04	1.000000e+00,	0.000000e+00	
161	4.073803e+04	1.000000e+00,	0.000000e+00	
162	4.168694e+04	1.000000e+00,	0.000000e+00	
163	4.265795e+04	1.000000e+00,	0.000000e+00	
164	4.365158e+04	1.000000e+00,	0.000000e+00	
165	4.466836e+04	1.000000e+00,	0.000000e+00	
166	4.570882e+04	1.000000e+00,	0.000000e+00	
167	4.677351e+04	1.000000e+00,	0.000000e+00	
168	4.786301e+04	1.000000e+00,	0.000000e+00	
169	4.897788e+04	1.000000e+00,	0.000000e+00	
170	5.011872e+04	1.000000e+00,	0.000000e+00	

Index   frequency       in2                             
--------------------------------------------------------------------------------
171	5.128614e+04	1.000000e+00,	0.000000e+00	
172	5.248075e+04	1.000000e+00,	0.000000e+00	
173	5.370318e+04	1.000000e+00,	0.000000e+00	
174	5.495409e+04	1.000000e+00,	0.000000e+00	
175	5.623413e+04	1.000000e+00,	0.000000e+00	
176	5.754399e+04	1.000000e+00,	0.000000e+00	
177	5.888437e+04	1.000000e+00,	0.000000e+00	
178	6.025596e+04	1.000000e+00,	0.000000e+00	
179	6.165950e+04	1.000000e+00,	0.000000e+00	
180	6.309573e+04	1.000000e+00,	0.000000e+00	
181	6.456542e+04	1.000000e+00,	0.000000e+00	
182	6.606934e+04	1.000000e+00,	0.000000e+00	
183	6.760830e+04	1.000000e+00,	0.000000e+00	
184	6.918310e+04	1.000000e+00,	0.000000e+00	
185	7.079458e+04	1.000000e+00,	0.000000e+00	
186	7.244360e+04	1.000000e+00,	0.000000e+00	
187	7.413102e+04	1.000000e+00,	0.000000e+00	
188	7.585776e+04	1.000000e+00,	0.000000e+00	
189	7.762471e+04	1.000000e+00,	0.000000e+00	
190	7.943282e+04	1.000000e+00,	0.000000e+00	
191	8.128305e+04	1.000000e+00,	0.000000e+00	
192	8.317638e+04	1.000000e+00,	0.000000e+00	
193	8.511380e+04	1.000000e+00,	0.000000e+00	
194	8.709636e+04	1.000000e+00,	0.000000e+00	
195	8.912509e+04	1.000000e+00,	0.000000e+00	
196	9.120108e+04	1.000000e+00,	0.000000e+00	
197	9.332543e+04	1.000000e+00,	0.000000e+00	
198	9.549926e+04	1.000000e+00,	0.000000e+00	
199	9.772372e+04	1.000000e+00,	0.000000e+00	
200	1.000000e+05	1.000000e+00,	0.000000e+00	
201	1.023293e+05	1.000000e+00,	0.000000e+00	
202	1.047129e+05	1.000000e+00,	0.000000e+00	
203	1.071519e+05	1.000000e+00,	0.000000e+00	
204	1.096478e+05	1.000000e+00,	0.000000e+00	
205	1.122018e+05	1.000000e+00,	0.000000e+00	
206	1.148154e+05	1.000000e+00,	0.000000e+00	
207	1.174898e+05	1.000000e+00,	0.000000e+00	
208	1.202264e+05	1.000000e+00,	0.000000e+00	
209	1.230269e+05	1.000000e+00,	0.000000e+00	
210	1.258925e+05	1.000000e+00,	0.000000e+00	
211	1.288250e+05	1.000000e+00,	0.000000e+00	
212	1.318257e+05	1.000000e+00,	0.000000e+00	
213	1.348963e+05	1.000000e+00,	0.000000e+00	
214	1.380384e+05	1.000000e+00,	0.000000e+00	
215	1.412538e+05	1.000000e+00,	0.000000e+00	
216	1.445440e+05	1.000000e+00,	0.000000e+00	
217	1.479108e+05	1.000000e+00,	0.000000e+00	
218	1.513561e+05	1.000000e+00,	0.000000e+00	
219	1.548817e+05	1.000000e+00,	0.000000e+00	
220	1.584893e+05	1.000000e+00,	0.000000e+00	
221	1.621810e+05	1.000000e+00,	0.000000e+00	
222	1.659587e+05	1.000000e+00,	0.000000e+00	
223	1.698244e+05	1.000000e+00,	0.000000e+00	
224	1.737801e+05	1.000000e+00,	0.000000e+00	
225	1.778279e+05	1.000000e+00,	0.000000e+00	
226	1.819701e+05	1.000000e+00,	0.000000e+00	
227	1.862087e+05	1.000000e+00,	0.000000e+00	
228	1.905461e+05	1.000000e+00,	0.000000e+00	

Index   frequency       in2                             
--------------------------------------------------------------------------------
229	1.949845e+05	1.000000e+00,	0.000000e+00	
230	1.995262e+05	1.000000e+00,	0.000000e+00	
231	2.041738e+05	1.000000e+00,	0.000000e+00	
232	2.089296e+05	1.000000e+00,	0.000000e+00	
233	2.137962e+05	1.000000e+00,	0.000000e+00	
234	2.187762e+05	1.000000e+00,	0.000000e+00	
235	2.238721e+05	1.000000e+00,	0.000000e+00	
236	2.290868e+05	1.000000e+00,	0.000000e+00	
237	2.344229e+05	1.000000e+00,	0.000000e+00	
238	2.398833e+05	1.000000e+00,	0.000000e+00	
239	2.454709e+05	1.000000e+00,	0.000000e+00	
240	2.511886e+05	1.000000e+00,	0.000000e+00	
241	2.570396e+05	1.000000e+00,	0.000000e+00	
242	2.630268e+05	1.000000e+00,	0.000000e+00	
243	2.691535e+05	1.000000e+00,	0.000000e+00	
244	2.754229e+05	1.000000e+00,	0.000000e+00	
245	2.818383e+05	1.000000e+00,	0.000000e+00	
246	2.884032e+05	1.000000e+00,	0.000000e+00	
247	2.951209e+05	1.000000e+00,	0.000000e+00	
248	3.019952e+05	1.000000e+00,	0.000000e+00	
249	3.090295e+05	1.000000e+00,	0.000000e+00	
250	3.162278e+05	1.000000e+00,	0.000000e+00	
251	3.235937e+05	1.000000e+00,	0.000000e+00	
252	3.311311e+05	1.000000e+00,	0.000000e+00	
253	3.388442e+05	1.000000e+00,	0.000000e+00	
254	3.467369e+05	1.000000e+00,	0.000000e+00	
255	3.548134e+05	1.000000e+00,	0.000000e+00	
256	3.630781e+05	1.000000e+00,	0.000000e+00	
257	3.715352e+05	1.000000e+00,	0.000000e+00	
258	3.801894e+05	1.000000e+00,	0.000000e+00	
259	3.890451e+05	1.000000e+00,	0.000000e+00	
260	3.981072e+05	1.000000e+00,	0.000000e+00	
261	4.073803e+05	1.000000e+00,	0.000000e+00	
262	4.168694e+05	1.000000e+00,	0.000000e+00	
263	4.265795e+05	1.000000e+00,	0.000000e+00	
264	4.365158e+05	1.000000e+00,	0.000000e+00	
265	4.466836e+05	1.000000e+00,	0.000000e+00	
266	4.570882e+05	1.000000e+00,	0.000000e+00	
267	4.677351e+05	1.000000e+00,	0.000000e+00	
268	4.786301e+05	1.000000e+00,	0.000000e+00	
269	4.897788e+05	1.000000e+00,	0.000000e+00	
270	5.011872e+05	1.000000e+00,	0.000000e+00	
271	5.128614e+05	1.000000e+00,	0.000000e+00	
272	5.248075e+05	1.000000e+00,	0.000000e+00	
273	5.370318e+05	1.000000e+00,	0.000000e+00	
274	5.495409e+05	1.000000e+00,	0.000000e+00	
275	5.623413e+05	1.000000e+00,	0.000000e+00	
276	5.754399e+05	1.000000e+00,	0.000000e+00	
277	5.888437e+05	1.000000e+00,	0.000000e+00	
278	6.025596e+05	1.000000e+00,	0.000000e+00	
279	6.165950e+05	1.000000e+00,	0.000000e+00	
280	6.309573e+05	1.000000e+00,	0.000000e+00	
281	6.456542e+05	1.000000e+00,	0.000000e+00	
282	6.606934e+05	1.000000e+00,	0.000000e+00	
283	6.760830e+05	1.000000e+00,	0.000000e+00	
284	6.918310e+05	1.000000e+00,	0.000000e+00	
285	7.079458e+05	1.000000e+00,	0.000000e+00	
286	7.244360e+05	1.000000e+00,	0.000000e+00	

Index   frequency       in2                             
--------------------------------------------------------------------------------
287	7.413102e+05	1.000000e+00,	0.000000e+00	
288	7.585776e+05	1.000000e+00,	0.000000e+00	
289	7.762471e+05	1.000000e+00,	0.000000e+00	
290	7.943282e+05	1.000000e+00,	0.000000e+00	
291	8.128305e+05	1.000000e+00,	0.000000e+00	
292	8.317638e+05	1.000000e+00,	0.000000e+00	
293	8.511380e+05	1.000000e+00,	0.000000e+00	
294	8.709636e+05	1.000000e+00,	0.000000e+00	
295	8.912509e+05	1.000000e+00,	0.000000e+00	
296	9.120108e+05	1.000000e+00,	0.000000e+00	
297	9.332543e+05	1.000000e+00,	0.000000e+00	
298	9.549926e+05	1.000000e+00,	0.000000e+00	
299	9.772372e+05	1.000000e+00,	0.000000e+00	
300	1.000000e+06	1.000000e+00,	0.000000e+00	
301	1.023293e+06	1.000000e+00,	0.000000e+00	
302	1.047129e+06	1.000000e+00,	0.000000e+00	
303	1.071519e+06	1.000000e+00,	0.000000e+00	
304	1.096478e+06	1.000000e+00,	0.000000e+00	
305	1.122018e+06	1.000000e+00,	0.000000e+00	
306	1.148154e+06	1.000000e+00,	0.000000e+00	
307	1.174898e+06	1.000000e+00,	0.000000e+00	
308	1.202264e+06	1.000000e+00,	0.000000e+00	
309	1.230269e+06	1.000000e+00,	0.000000e+00	
310	1.258925e+06	1.000000e+00,	0.000000e+00	
311	1.288250e+06	1.000000e+00,	0.000000e+00	
312	1.318257e+06	1.000000e+00,	0.000000e+00	
313	1.348963e+06	1.000000e+00,	0.000000e+00	
314	1.380384e+06	1.000000e+00,	0.000000e+00	
315	1.412538e+06	1.000000e+00,	0.000000e+00	
316	1.445440e+06	1.000000e+00,	0.000000e+00	
317	1.479108e+06	1.000000e+00,	0.000000e+00	
318	1.513561e+06	1.000000e+00,	0.000000e+00	
319	1.548817e+06	1.000000e+00,	0.000000e+00	
320	1.584893e+06	1.000000e+00,	0.000000e+00	
321	1.621810e+06	1.000000e+00,	0.000000e+00	
322	1.659587e+06	1.000000e+00,	0.000000e+00	
323	1.698244e+06	1.000000e+00,	0.000000e+00	
324	1.737801e+06	1.000000e+00,	0.000000e+00	
325	1.778279e+06	1.000000e+00,	0.000000e+00	
326	1.819701e+06	1.000000e+00,	0.000000e+00	
327	1.862087e+06	1.000000e+00,	0.000000e+00	
328	1.905461e+06	1.000000e+00,	0.000000e+00	
329	1.949845e+06	1.000000e+00,	0.000000e+00	
330	1.995262e+06	1.000000e+00,	0.000000e+00	
331	2.041738e+06	1.000000e+00,	0.000000e+00	
332	2.089296e+06	1.000000e+00,	0.000000e+00	
333	2.137962e+06	1.000000e+00,	0.000000e+00	
334	2.187762e+06	1.000000e+00,	0.000000e+00	
335	2.238721e+06	1.000000e+00,	0.000000e+00	
336	2.290868e+06	1.000000e+00,	0.000000e+00	
337	2.344229e+06	1.000000e+00,	0.000000e+00	
338	2.398833e+06	1.000000e+00,	0.000000e+00	
339	2.454709e+06	1.000000e+00,	0.000000e+00	
340	2.511886e+06	1.000000e+00,	0.000000e+00	
341	2.570396e+06	1.000000e+00,	0.000000e+00	
342	2.630268e+06	1.000000e+00,	0.000000e+00	
343	2.691535e+06	1.000000e+00,	0.000000e+00	
344	2.754229e+06	1.000000e+00,	0.000000e+00	

Index   frequency       in2                             
--------------------------------------------------------------------------------
345	2.818383e+06	1.000000e+00,	0.000000e+00	
346	2.884032e+06	1.000000e+00,	0.000000e+00	
347	2.951209e+06	1.000000e+00,	0.000000e+00	
348	3.019952e+06	1.000000e+00,	0.000000e+00	
349	3.090295e+06	1.000000e+00,	0.000000e+00	
350	3.162278e+06	1.000000e+00,	0.000000e+00	
351	3.235937e+06	1.000000e+00,	0.000000e+00	
352	3.311311e+06	1.000000e+00,	0.000000e+00	
353	3.388442e+06	1.000000e+00,	0.000000e+00	
354	3.467369e+06	1.000000e+00,	0.000000e+00	
355	3.548134e+06	1.000000e+00,	0.000000e+00	
356	3.630781e+06	1.000000e+00,	0.000000e+00	
357	3.715352e+06	1.000000e+00,	0.000000e+00	
358	3.801894e+06	1.000000e+00,	0.000000e+00	
359	3.890451e+06	1.000000e+00,	0.000000e+00	
360	3.981072e+06	1.000000e+00,	0.000000e+00	
361	4.073803e+06	1.000000e+00,	0.000000e+00	
362	4.168694e+06	1.000000e+00,	0.000000e+00	
363	4.265795e+06	1.000000e+00,	0.000000e+00	
364	4.365158e+06	1.000000e+00,	0.000000e+00	
365	4.466836e+06	1.000000e+00,	0.000000e+00	
366	4.570882e+06	1.000000e+00,	0.000000e+00	
367	4.677351e+06	1.000000e+00,	0.000000e+00	
368	4.786301e+06	1.000000e+00,	0.000000e+00	
369	4.897788e+06	1.000000e+00,	0.000000e+00	
370	5.011872e+06	1.000000e+00,	0.000000e+00	
371	5.128614e+06	1.000000e+00,	0.000000e+00	
372	5.248075e+06	1.000000e+00,	0.000000e+00	
373	5.370318e+06	1.000000e+00,	0.000000e+00	
374	5.495409e+06	1.000000e+00,	0.000000e+00	
375	5.623413e+06	1.000000e+00,	0.000000e+00	
376	5.754399e+06	1.000000e+00,	0.000000e+00	
377	5.888437e+06	1.000000e+00,	0.000000e+00	
378	6.025596e+06	1.000000e+00,	0.000000e+00	
379	6.165950e+06	1.000000e+00,	0.000000e+00	
380	6.309573e+06	1.000000e+00,	0.000000e+00	
381	6.456542e+06	1.000000e+00,	0.000000e+00	
382	6.606934e+06	1.000000e+00,	0.000000e+00	
383	6.760830e+06	1.000000e+00,	0.000000e+00	
384	6.918310e+06	1.000000e+00,	0.000000e+00	
385	7.079458e+06	1.000000e+00,	0.000000e+00	
386	7.244360e+06	1.000000e+00,	0.000000e+00	
387	7.413102e+06	1.000000e+00,	0.000000e+00	
388	7.585776e+06	1.000000e+00,	0.000000e+00	
389	7.762471e+06	1.000000e+00,	0.000000e+00	
390	7.943282e+06	1.000000e+00,	0.000000e+00	
391	8.128305e+06	1.000000e+00,	0.000000e+00	
392	8.317638e+06	1.000000e+00,	0.000000e+00	
393	8.511380e+06	1.000000e+00,	0.000000e+00	
394	8.709636e+06	1.000000e+00,	0.000000e+00	
395	8.912509e+06	1.000000e+00,	0.000000e+00	
396	9.120108e+06	1.000000e+00,	0.000000e+00	
397	9.332543e+06	1.000000e+00,	0.000000e+00	
398	9.549926e+06	1.000000e+00,	0.000000e+00	
399	9.772372e+06	1.000000e+00,	0.000000e+00	
400	1.000000e+07	1.000000e+00,	0.000000e+00	
401	1.023293e+07	1.000000e+00,	0.000000e+00	
402	1.047129e+07	1.000000e+00,	0.000000e+00	

Index   frequency       in2                             
--------------------------------------------------------------------------------
403	1.071519e+07	1.000000e+00,	0.000000e+00	
404	1.096478e+07	1.000000e+00,	0.000000e+00	
405	1.122018e+07	1.000000e+00,	0.000000e+00	
406	1.148154e+07	1.000000e+00,	0.000000e+00	
407	1.174898e+07	1.000000e+00,	0.000000e+00	
408	1.202264e+07	1.000000e+00,	0.000000e+00	
409	1.230269e+07	1.000000e+00,	0.000000e+00	
410	1.258925e+07	1.000000e+00,	0.000000e+00	
411	1.288250e+07	1.000000e+00,	0.000000e+00	
412	1.318257e+07	1.000000e+00,	0.000000e+00	
413	1.348963e+07	1.000000e+00,	0.000000e+00	
414	1.380384e+07	1.000000e+00,	0.000000e+00	
415	1.412538e+07	1.000000e+00,	0.000000e+00	
416	1.445440e+07	1.000000e+00,	0.000000e+00	
417	1.479108e+07	1.000000e+00,	0.000000e+00	
418	1.513561e+07	1.000000e+00,	0.000000e+00	
419	1.548817e+07	1.000000e+00,	0.000000e+00	
420	1.584893e+07	1.000000e+00,	0.000000e+00	
421	1.621810e+07	1.000000e+00,	0.000000e+00	
422	1.659587e+07	1.000000e+00,	0.000000e+00	
423	1.698244e+07	1.000000e+00,	0.000000e+00	
424	1.737801e+07	1.000000e+00,	0.000000e+00	
425	1.778279e+07	1.000000e+00,	0.000000e+00	
426	1.819701e+07	1.000000e+00,	0.000000e+00	
427	1.862087e+07	1.000000e+00,	0.000000e+00	
428	1.905461e+07	1.000000e+00,	0.000000e+00	
429	1.949845e+07	1.000000e+00,	0.000000e+00	
430	1.995262e+07	1.000000e+00,	0.000000e+00	
431	2.041738e+07	1.000000e+00,	0.000000e+00	
432	2.089296e+07	1.000000e+00,	0.000000e+00	
433	2.137962e+07	1.000000e+00,	0.000000e+00	
434	2.187762e+07	1.000000e+00,	0.000000e+00	
435	2.238721e+07	1.000000e+00,	0.000000e+00	
436	2.290868e+07	1.000000e+00,	0.000000e+00	
437	2.344229e+07	1.000000e+00,	0.000000e+00	
438	2.398833e+07	1.000000e+00,	0.000000e+00	
439	2.454709e+07	1.000000e+00,	0.000000e+00	
440	2.511886e+07	1.000000e+00,	0.000000e+00	
441	2.570396e+07	1.000000e+00,	0.000000e+00	
442	2.630268e+07	1.000000e+00,	0.000000e+00	
443	2.691535e+07	1.000000e+00,	0.000000e+00	
444	2.754229e+07	1.000000e+00,	0.000000e+00	
445	2.818383e+07	1.000000e+00,	0.000000e+00	
446	2.884032e+07	1.000000e+00,	0.000000e+00	
447	2.951209e+07	1.000000e+00,	0.000000e+00	
448	3.019952e+07	1.000000e+00,	0.000000e+00	
449	3.090295e+07	1.000000e+00,	0.000000e+00	
450	3.162278e+07	1.000000e+00,	0.000000e+00	
451	3.235937e+07	1.000000e+00,	0.000000e+00	
452	3.311311e+07	1.000000e+00,	0.000000e+00	
453	3.388442e+07	1.000000e+00,	0.000000e+00	
454	3.467369e+07	1.000000e+00,	0.000000e+00	
455	3.548134e+07	1.000000e+00,	0.000000e+00	
456	3.630781e+07	1.000000e+00,	0.000000e+00	
457	3.715352e+07	1.000000e+00,	0.000000e+00	
458	3.801894e+07	1.000000e+00,	0.000000e+00	
459	3.890451e+07	1.000000e+00,	0.000000e+00	
460	3.981072e+07	1.000000e+00,	0.000000e+00	

Index   frequency       in2                             
--------------------------------------------------------------------------------
461	4.073803e+07	1.000000e+00,	0.000000e+00	
462	4.168694e+07	1.000000e+00,	0.000000e+00	
463	4.265795e+07	1.000000e+00,	0.000000e+00	
464	4.365158e+07	1.000000e+00,	0.000000e+00	
465	4.466836e+07	1.000000e+00,	0.000000e+00	
466	4.570882e+07	1.000000e+00,	0.000000e+00	
467	4.677351e+07	1.000000e+00,	0.000000e+00	
468	4.786301e+07	1.000000e+00,	0.000000e+00	
469	4.897788e+07	1.000000e+00,	0.000000e+00	
470	5.011872e+07	1.000000e+00,	0.000000e+00	
471	5.128614e+07	1.000000e+00,	0.000000e+00	
472	5.248075e+07	1.000000e+00,	0.000000e+00	
473	5.370318e+07	1.000000e+00,	0.000000e+00	
474	5.495409e+07	1.000000e+00,	0.000000e+00	
475	5.623413e+07	1.000000e+00,	0.000000e+00	
476	5.754399e+07	1.000000e+00,	0.000000e+00	
477	5.888437e+07	1.000000e+00,	0.000000e+00	
478	6.025596e+07	1.000000e+00,	0.000000e+00	
479	6.165950e+07	1.000000e+00,	0.000000e+00	
480	6.309573e+07	1.000000e+00,	0.000000e+00	
481	6.456542e+07	1.000000e+00,	0.000000e+00	
482	6.606934e+07	1.000000e+00,	0.000000e+00	
483	6.760830e+07	1.000000e+00,	0.000000e+00	
484	6.918310e+07	1.000000e+00,	0.000000e+00	
485	7.079458e+07	1.000000e+00,	0.000000e+00	
486	7.244360e+07	1.000000e+00,	0.000000e+00	
487	7.413102e+07	1.000000e+00,	0.000000e+00	
488	7.585776e+07	1.000000e+00,	0.000000e+00	
489	7.762471e+07	1.000000e+00,	0.000000e+00	
490	7.943282e+07	1.000000e+00,	0.000000e+00	
491	8.128305e+07	1.000000e+00,	0.000000e+00	
492	8.317638e+07	1.000000e+00,	0.000000e+00	
493	8.511380e+07	1.000000e+00,	0.000000e+00	
494	8.709636e+07	1.000000e+00,	0.000000e+00	
495	8.912509e+07	1.000000e+00,	0.000000e+00	
496	9.120108e+07	1.000000e+00,	0.000000e+00	
497	9.332543e+07	1.000000e+00,	0.000000e+00	
498	9.549926e+07	1.000000e+00,	0.000000e+00	
499	9.772372e+07	1.000000e+00,	0.000000e+00	
500	1.000000e+08	1.000000e+00,	0.000000e+00	
501	1.023293e+08	1.000000e+00,	0.000000e+00	
502	1.047129e+08	1.000000e+00,	0.000000e+00	
503	1.071519e+08	1.000000e+00,	0.000000e+00	
504	1.096478e+08	1.000000e+00,	0.000000e+00	
505	1.122018e+08	1.000000e+00,	0.000000e+00	
506	1.148154e+08	1.000000e+00,	0.000000e+00	
507	1.174898e+08	1.000000e+00,	0.000000e+00	
508	1.202264e+08	1.000000e+00,	0.000000e+00	
509	1.230269e+08	1.000000e+00,	0.000000e+00	
510	1.258925e+08	1.000000e+00,	0.000000e+00	
511	1.288250e+08	1.000000e+00,	0.000000e+00	
512	1.318257e+08	1.000000e+00,	0.000000e+00	
513	1.348963e+08	1.000000e+00,	0.000000e+00	
514	1.380384e+08	1.000000e+00,	0.000000e+00	
515	1.412538e+08	1.000000e+00,	0.000000e+00	
516	1.445440e+08	1.000000e+00,	0.000000e+00	
517	1.479108e+08	1.000000e+00,	0.000000e+00	
518	1.513561e+08	1.000000e+00,	0.000000e+00	

Index   frequency       in2                             
--------------------------------------------------------------------------------
519	1.548817e+08	1.000000e+00,	0.000000e+00	
520	1.584893e+08	1.000000e+00,	0.000000e+00	
521	1.621810e+08	1.000000e+00,	0.000000e+00	
522	1.659587e+08	1.000000e+00,	0.000000e+00	
523	1.698244e+08	1.000000e+00,	0.000000e+00	
524	1.737801e+08	1.000000e+00,	0.000000e+00	
525	1.778279e+08	1.000000e+00,	0.000000e+00	
526	1.819701e+08	1.000000e+00,	0.000000e+00	
527	1.862087e+08	1.000000e+00,	0.000000e+00	
528	1.905461e+08	1.000000e+00,	0.000000e+00	
529	1.949845e+08	1.000000e+00,	0.000000e+00	
530	1.995262e+08	1.000000e+00,	0.000000e+00	
531	2.041738e+08	1.000000e+00,	0.000000e+00	
532	2.089296e+08	1.000000e+00,	0.000000e+00	
533	2.137962e+08	1.000000e+00,	0.000000e+00	
534	2.187762e+08	1.000000e+00,	0.000000e+00	
535	2.238721e+08	1.000000e+00,	0.000000e+00	
536	2.290868e+08	1.000000e+00,	0.000000e+00	
537	2.344229e+08	1.000000e+00,	0.000000e+00	
538	2.398833e+08	1.000000e+00,	0.000000e+00	
539	2.454709e+08	1.000000e+00,	0.000000e+00	
540	2.511886e+08	1.000000e+00,	0.000000e+00	
541	2.570396e+08	1.000000e+00,	0.000000e+00	
542	2.630268e+08	1.000000e+00,	0.000000e+00	
543	2.691535e+08	1.000000e+00,	0.000000e+00	
544	2.754229e+08	1.000000e+00,	0.000000e+00	
545	2.818383e+08	1.000000e+00,	0.000000e+00	
546	2.884032e+08	1.000000e+00,	0.000000e+00	
547	2.951209e+08	1.000000e+00,	0.000000e+00	
548	3.019952e+08	1.000000e+00,	0.000000e+00	
549	3.090295e+08	1.000000e+00,	0.000000e+00	
550	3.162278e+08	1.000000e+00,	0.000000e+00	
551	3.235937e+08	1.000000e+00,	0.000000e+00	
552	3.311311e+08	1.000000e+00,	0.000000e+00	
553	3.388442e+08	1.000000e+00,	0.000000e+00	
554	3.467369e+08	1.000000e+00,	0.000000e+00	
555	3.548134e+08	1.000000e+00,	0.000000e+00	
556	3.630781e+08	1.000000e+00,	0.000000e+00	
557	3.715352e+08	1.000000e+00,	0.000000e+00	
558	3.801894e+08	1.000000e+00,	0.000000e+00	
559	3.890451e+08	1.000000e+00,	0.000000e+00	
560	3.981072e+08	1.000000e+00,	0.000000e+00	
561	4.073803e+08	1.000000e+00,	0.000000e+00	
562	4.168694e+08	1.000000e+00,	0.000000e+00	
563	4.265795e+08	1.000000e+00,	0.000000e+00	
564	4.365158e+08	1.000000e+00,	0.000000e+00	
565	4.466836e+08	1.000000e+00,	0.000000e+00	
566	4.570882e+08	1.000000e+00,	0.000000e+00	
567	4.677351e+08	1.000000e+00,	0.000000e+00	
568	4.786301e+08	1.000000e+00,	0.000000e+00	
569	4.897788e+08	1.000000e+00,	0.000000e+00	
570	5.011872e+08	1.000000e+00,	0.000000e+00	
571	5.128614e+08	1.000000e+00,	0.000000e+00	
572	5.248075e+08	1.000000e+00,	0.000000e+00	
573	5.370318e+08	1.000000e+00,	0.000000e+00	
574	5.495409e+08	1.000000e+00,	0.000000e+00	
575	5.623413e+08	1.000000e+00,	0.000000e+00	
576	5.754399e+08	1.000000e+00,	0.000000e+00	

Index   frequency       in2                             
--------------------------------------------------------------------------------
577	5.888437e+08	1.000000e+00,	0.000000e+00	
578	6.025596e+08	1.000000e+00,	0.000000e+00	
579	6.165950e+08	1.000000e+00,	0.000000e+00	
580	6.309573e+08	1.000000e+00,	0.000000e+00	
581	6.456542e+08	1.000000e+00,	0.000000e+00	
582	6.606934e+08	1.000000e+00,	0.000000e+00	
583	6.760830e+08	1.000000e+00,	0.000000e+00	
584	6.918310e+08	1.000000e+00,	0.000000e+00	
585	7.079458e+08	1.000000e+00,	0.000000e+00	
586	7.244360e+08	1.000000e+00,	0.000000e+00	
587	7.413102e+08	1.000000e+00,	0.000000e+00	
588	7.585776e+08	1.000000e+00,	0.000000e+00	
589	7.762471e+08	1.000000e+00,	0.000000e+00	
590	7.943282e+08	1.000000e+00,	0.000000e+00	
591	8.128305e+08	1.000000e+00,	0.000000e+00	
592	8.317638e+08	1.000000e+00,	0.000000e+00	
593	8.511380e+08	1.000000e+00,	0.000000e+00	
594	8.709636e+08	1.000000e+00,	0.000000e+00	
595	8.912509e+08	1.000000e+00,	0.000000e+00	
596	9.120108e+08	1.000000e+00,	0.000000e+00	
597	9.332543e+08	1.000000e+00,	0.000000e+00	
598	9.549926e+08	1.000000e+00,	0.000000e+00	
599	9.772372e+08	1.000000e+00,	0.000000e+00	
600	1.000000e+09	1.000000e+00,	0.000000e+00	

           * transmission gate ac characterization - ngspice version
           AC Analysis  Tue Jan  6 18:25:29  2026
--------------------------------------------------------------------------------
Index   frequency       m.xn1.x1.msky130_fd_pr__nfet_01 
--------------------------------------------------------------------------------
0	1.000000e+03	2.499995e-11,	1.991547e-10	
1	1.023293e+03	2.499995e-11,	2.037936e-10	
2	1.047129e+03	2.499995e-11,	2.085406e-10	
3	1.071519e+03	2.499995e-11,	2.133981e-10	
4	1.096478e+03	2.499995e-11,	2.183688e-10	
5	1.122018e+03	2.499994e-11,	2.234553e-10	
6	1.148154e+03	2.499994e-11,	2.286602e-10	
7	1.174898e+03	2.499994e-11,	2.339864e-10	
8	1.202264e+03	2.499993e-11,	2.394366e-10	
9	1.230269e+03	2.499993e-11,	2.450138e-10	
10	1.258925e+03	2.499993e-11,	2.507210e-10	
11	1.288250e+03	2.499993e-11,	2.565610e-10	
12	1.318257e+03	2.499992e-11,	2.625371e-10	
13	1.348963e+03	2.499992e-11,	2.686523e-10	
14	1.380384e+03	2.499991e-11,	2.749101e-10	
15	1.412538e+03	2.499991e-11,	2.813135e-10	
16	1.445440e+03	2.499991e-11,	2.878662e-10	
17	1.479108e+03	2.499990e-11,	2.945714e-10	
18	1.513561e+03	2.499990e-11,	3.014329e-10	
19	1.548817e+03	2.499989e-11,	3.084542e-10	
20	1.584893e+03	2.499989e-11,	3.156390e-10	
21	1.621810e+03	2.499988e-11,	3.229912e-10	
22	1.659587e+03	2.499988e-11,	3.305146e-10	
23	1.698244e+03	2.499987e-11,	3.382133e-10	
24	1.737801e+03	2.499986e-11,	3.460913e-10	
25	1.778279e+03	2.499986e-11,	3.541528e-10	
26	1.819701e+03	2.499985e-11,	3.624020e-10	
27	1.862087e+03	2.499984e-11,	3.708435e-10	
28	1.905461e+03	2.499984e-11,	3.794815e-10	
29	1.949845e+03	2.499983e-11,	3.883208e-10	
30	1.995262e+03	2.499982e-11,	3.973659e-10	
31	2.041738e+03	2.499981e-11,	4.066218e-10	
32	2.089296e+03	2.499980e-11,	4.160932e-10	
33	2.137962e+03	2.499980e-11,	4.257853e-10	
34	2.187762e+03	2.499979e-11,	4.357031e-10	
35	2.238721e+03	2.499978e-11,	4.458519e-10	
36	2.290868e+03	2.499977e-11,	4.562371e-10	
37	2.344229e+03	2.499975e-11,	4.668643e-10	
38	2.398833e+03	2.499974e-11,	4.777389e-10	
39	2.454709e+03	2.499973e-11,	4.888669e-10	
40	2.511886e+03	2.499972e-11,	5.002541e-10	
41	2.570396e+03	2.499971e-11,	5.119065e-10	
42	2.630268e+03	2.499969e-11,	5.238303e-10	
43	2.691535e+03	2.499968e-11,	5.360319e-10	
44	2.754229e+03	2.499966e-11,	5.485177e-10	
45	2.818383e+03	2.499965e-11,	5.612943e-10	
46	2.884032e+03	2.499963e-11,	5.743685e-10	
47	2.951209e+03	2.499961e-11,	5.877473e-10	
48	3.019952e+03	2.499959e-11,	6.014377e-10	
49	3.090295e+03	2.499957e-11,	6.154470e-10	
50	3.162278e+03	2.499955e-11,	6.297826e-10	
51	3.235937e+03	2.499953e-11,	6.444521e-10	
52	3.311311e+03	2.499951e-11,	6.594633e-10	
53	3.388442e+03	2.499949e-11,	6.748242e-10	
54	3.467369e+03	2.499946e-11,	6.905428e-10	

Index   frequency       m.xn1.x1.msky130_fd_pr__nfet_01 
--------------------------------------------------------------------------------
55	3.548134e+03	2.499944e-11,	7.066276e-10	
56	3.630781e+03	2.499941e-11,	7.230871e-10	
57	3.715352e+03	2.499939e-11,	7.399300e-10	
58	3.801894e+03	2.499936e-11,	7.571652e-10	
59	3.890451e+03	2.499933e-11,	7.748018e-10	
60	3.981072e+03	2.499929e-11,	7.928493e-10	
61	4.073803e+03	2.499926e-11,	8.113171e-10	
62	4.168694e+03	2.499923e-11,	8.302151e-10	
63	4.265795e+03	2.499919e-11,	8.495533e-10	
64	4.365158e+03	2.499915e-11,	8.693419e-10	
65	4.466836e+03	2.499911e-11,	8.895915e-10	
66	4.570882e+03	2.499907e-11,	9.103128e-10	
67	4.677351e+03	2.499903e-11,	9.315167e-10	
68	4.786301e+03	2.499898e-11,	9.532145e-10	
69	4.897788e+03	2.499893e-11,	9.754177e-10	
70	5.011872e+03	2.499888e-11,	9.981381e-10	
71	5.128614e+03	2.499883e-11,	1.021388e-09	
72	5.248075e+03	2.499877e-11,	1.045179e-09	
73	5.370318e+03	2.499872e-11,	1.069524e-09	
74	5.495409e+03	2.499866e-11,	1.094437e-09	
75	5.623413e+03	2.499859e-11,	1.119929e-09	
76	5.754399e+03	2.499853e-11,	1.146016e-09	
77	5.888437e+03	2.499846e-11,	1.172710e-09	
78	6.025596e+03	2.499838e-11,	1.200026e-09	
79	6.165950e+03	2.499831e-11,	1.227978e-09	
80	6.309573e+03	2.499823e-11,	1.256581e-09	
81	6.456542e+03	2.499814e-11,	1.285851e-09	
82	6.606934e+03	2.499806e-11,	1.315802e-09	
83	6.760830e+03	2.499797e-11,	1.346451e-09	
84	6.918310e+03	2.499787e-11,	1.377814e-09	
85	7.079458e+03	2.499777e-11,	1.409908e-09	
86	7.244360e+03	2.499766e-11,	1.442748e-09	
87	7.413102e+03	2.499755e-11,	1.476354e-09	
88	7.585776e+03	2.499744e-11,	1.510743e-09	
89	7.762471e+03	2.499732e-11,	1.545933e-09	
90	7.943282e+03	2.499719e-11,	1.581942e-09	
91	8.128305e+03	2.499706e-11,	1.618790e-09	
92	8.317638e+03	2.499692e-11,	1.656497e-09	
93	8.511380e+03	2.499678e-11,	1.695082e-09	
94	8.709636e+03	2.499662e-11,	1.734565e-09	
95	8.912509e+03	2.499647e-11,	1.774968e-09	
96	9.120108e+03	2.499630e-11,	1.816313e-09	
97	9.332543e+03	2.499612e-11,	1.858620e-09	
98	9.549926e+03	2.499594e-11,	1.901913e-09	
99	9.772372e+03	2.499575e-11,	1.946214e-09	
100	1.000000e+04	2.499555e-11,	1.991547e-09	
101	1.023293e+04	2.499534e-11,	2.037936e-09	
102	1.047129e+04	2.499512e-11,	2.085406e-09	
103	1.071519e+04	2.499489e-11,	2.133981e-09	
104	1.096478e+04	2.499465e-11,	2.183688e-09	
105	1.122018e+04	2.499440e-11,	2.234553e-09	
106	1.148154e+04	2.499414e-11,	2.286602e-09	
107	1.174898e+04	2.499386e-11,	2.339864e-09	
108	1.202264e+04	2.499357e-11,	2.394366e-09	
109	1.230269e+04	2.499327e-11,	2.450138e-09	
110	1.258925e+04	2.499295e-11,	2.507210e-09	
111	1.288250e+04	2.499262e-11,	2.565610e-09	
112	1.318257e+04	2.499227e-11,	2.625371e-09	

Index   frequency       m.xn1.x1.msky130_fd_pr__nfet_01 
--------------------------------------------------------------------------------
113	1.348963e+04	2.499190e-11,	2.686523e-09	
114	1.380384e+04	2.499152e-11,	2.749101e-09	
115	1.412538e+04	2.499112e-11,	2.813135e-09	
116	1.445440e+04	2.499071e-11,	2.878662e-09	
117	1.479108e+04	2.499027e-11,	2.945714e-09	
118	1.513561e+04	2.498981e-11,	3.014329e-09	
119	1.548817e+04	2.498933e-11,	3.084542e-09	
120	1.584893e+04	2.498883e-11,	3.156390e-09	
121	1.621810e+04	2.498830e-11,	3.229912e-09	
122	1.659587e+04	2.498775e-11,	3.305146e-09	
123	1.698244e+04	2.498717e-11,	3.382133e-09	
124	1.737801e+04	2.498657e-11,	3.460913e-09	
125	1.778279e+04	2.498593e-11,	3.541528e-09	
126	1.819701e+04	2.498527e-11,	3.624020e-09	
127	1.862087e+04	2.498458e-11,	3.708435e-09	
128	1.905461e+04	2.498385e-11,	3.794815e-09	
129	1.949845e+04	2.498309e-11,	3.883208e-09	
130	1.995262e+04	2.498229e-11,	3.973659e-09	
131	2.041738e+04	2.498146e-11,	4.066218e-09	
132	2.089296e+04	2.498058e-11,	4.160932e-09	
133	2.137962e+04	2.497967e-11,	4.257853e-09	
134	2.187762e+04	2.497871e-11,	4.357031e-09	
135	2.238721e+04	2.497771e-11,	4.458519e-09	
136	2.290868e+04	2.497666e-11,	4.562371e-09	
137	2.344229e+04	2.497555e-11,	4.668643e-09	
138	2.398833e+04	2.497440e-11,	4.777389e-09	
139	2.454709e+04	2.497320e-11,	4.888669e-09	
140	2.511886e+04	2.497193e-11,	5.002541e-09	
141	2.570396e+04	2.497061e-11,	5.119065e-09	
142	2.630268e+04	2.496923e-11,	5.238303e-09	
143	2.691535e+04	2.496778e-11,	5.360319e-09	
144	2.754229e+04	2.496626e-11,	5.485177e-09	
145	2.818383e+04	2.496467e-11,	5.612943e-09	
146	2.884032e+04	2.496300e-11,	5.743685e-09	
147	2.951209e+04	2.496126e-11,	5.877473e-09	
148	3.019952e+04	2.495943e-11,	6.014377e-09	
149	3.090295e+04	2.495752e-11,	6.154470e-09	
150	3.162278e+04	2.495552e-11,	6.297826e-09	
151	3.235937e+04	2.495342e-11,	6.444521e-09	
152	3.311311e+04	2.495123e-11,	6.594633e-09	
153	3.388442e+04	2.494893e-11,	6.748242e-09	
154	3.467369e+04	2.494652e-11,	6.905428e-09	
155	3.548134e+04	2.494400e-11,	7.066276e-09	
156	3.630781e+04	2.494136e-11,	7.230871e-09	
157	3.715352e+04	2.493860e-11,	7.399300e-09	
158	3.801894e+04	2.493570e-11,	7.571652e-09	
159	3.890451e+04	2.493267e-11,	7.748018e-09	
160	3.981072e+04	2.492950e-11,	7.928493e-09	
161	4.073803e+04	2.492618e-11,	8.113171e-09	
162	4.168694e+04	2.492270e-11,	8.302151e-09	
163	4.265795e+04	2.491906e-11,	8.495533e-09	
164	4.365158e+04	2.491524e-11,	8.693419e-09	
165	4.466836e+04	2.491125e-11,	8.895915e-09	
166	4.570882e+04	2.490706e-11,	9.103128e-09	
167	4.677351e+04	2.490268e-11,	9.315167e-09	
168	4.786301e+04	2.489810e-11,	9.532145e-09	
169	4.897788e+04	2.489330e-11,	9.754177e-09	
170	5.011872e+04	2.488827e-11,	9.981381e-09	

Index   frequency       m.xn1.x1.msky130_fd_pr__nfet_01 
--------------------------------------------------------------------------------
171	5.128614e+04	2.488300e-11,	1.021388e-08	
172	5.248075e+04	2.487749e-11,	1.045179e-08	
173	5.370318e+04	2.487171e-11,	1.069524e-08	
174	5.495409e+04	2.486567e-11,	1.094437e-08	
175	5.623413e+04	2.485934e-11,	1.119929e-08	
176	5.754399e+04	2.485271e-11,	1.146016e-08	
177	5.888437e+04	2.484577e-11,	1.172710e-08	
178	6.025596e+04	2.483850e-11,	1.200026e-08	
179	6.165950e+04	2.483089e-11,	1.227978e-08	
180	6.309573e+04	2.482292e-11,	1.256581e-08	
181	6.456542e+04	2.481457e-11,	1.285851e-08	
182	6.606934e+04	2.480583e-11,	1.315802e-08	
183	6.760830e+04	2.479668e-11,	1.346451e-08	
184	6.918310e+04	2.478710e-11,	1.377814e-08	
185	7.079458e+04	2.477707e-11,	1.409908e-08	
186	7.244360e+04	2.476656e-11,	1.442748e-08	
187	7.413102e+04	2.475556e-11,	1.476354e-08	
188	7.585776e+04	2.474404e-11,	1.510743e-08	
189	7.762471e+04	2.473197e-11,	1.545933e-08	
190	7.943282e+04	2.471934e-11,	1.581942e-08	
191	8.128305e+04	2.470611e-11,	1.618790e-08	
192	8.317638e+04	2.469226e-11,	1.656497e-08	
193	8.511380e+04	2.467776e-11,	1.695082e-08	
194	8.709636e+04	2.466257e-11,	1.734565e-08	
195	8.912509e+04	2.464667e-11,	1.774968e-08	
196	9.120108e+04	2.463002e-11,	1.816313e-08	
197	9.332543e+04	2.461258e-11,	1.858620e-08	
198	9.549926e+04	2.459433e-11,	1.901913e-08	
199	9.772372e+04	2.457521e-11,	1.946214e-08	
200	1.000000e+05	2.455519e-11,	1.991547e-08	
201	1.023293e+05	2.453422e-11,	2.037936e-08	
202	1.047129e+05	2.451227e-11,	2.085406e-08	
203	1.071519e+05	2.448929e-11,	2.133981e-08	
204	1.096478e+05	2.446522e-11,	2.183688e-08	
205	1.122018e+05	2.444001e-11,	2.234553e-08	
206	1.148154e+05	2.441362e-11,	2.286602e-08	
207	1.174898e+05	2.438599e-11,	2.339864e-08	
208	1.202264e+05	2.435705e-11,	2.394367e-08	
209	1.230269e+05	2.432675e-11,	2.450138e-08	
210	1.258925e+05	2.429502e-11,	2.507210e-08	
211	1.288250e+05	2.426180e-11,	2.565610e-08	
212	1.318257e+05	2.422701e-11,	2.625371e-08	
213	1.348963e+05	2.419057e-11,	2.686523e-08	
214	1.380384e+05	2.415243e-11,	2.749101e-08	
215	1.412538e+05	2.411248e-11,	2.813135e-08	
216	1.445440e+05	2.407066e-11,	2.878662e-08	
217	1.479108e+05	2.402686e-11,	2.945714e-08	
218	1.513561e+05	2.398099e-11,	3.014329e-08	
219	1.548817e+05	2.393297e-11,	3.084542e-08	
220	1.584893e+05	2.388268e-11,	3.156390e-08	
221	1.621810e+05	2.383003e-11,	3.229912e-08	
222	1.659587e+05	2.377489e-11,	3.305146e-08	
223	1.698244e+05	2.371715e-11,	3.382133e-08	
224	1.737801e+05	2.365669e-11,	3.460913e-08	
225	1.778279e+05	2.359338e-11,	3.541528e-08	
226	1.819701e+05	2.352709e-11,	3.624020e-08	
227	1.862087e+05	2.345767e-11,	3.708435e-08	
228	1.905461e+05	2.338499e-11,	3.794815e-08	

Index   frequency       m.xn1.x1.msky130_fd_pr__nfet_01 
--------------------------------------------------------------------------------
229	1.949845e+05	2.330887e-11,	3.883208e-08	
230	1.995262e+05	2.322917e-11,	3.973659e-08	
231	2.041738e+05	2.314572e-11,	4.066218e-08	
232	2.089296e+05	2.305833e-11,	4.160932e-08	
233	2.137962e+05	2.296682e-11,	4.257853e-08	
234	2.187762e+05	2.287100e-11,	4.357031e-08	
235	2.238721e+05	2.277066e-11,	4.458519e-08	
236	2.290868e+05	2.266560e-11,	4.562371e-08	
237	2.344229e+05	2.255558e-11,	4.668643e-08	
238	2.398833e+05	2.244038e-11,	4.777389e-08	
239	2.454709e+05	2.231974e-11,	4.888669e-08	
240	2.511886e+05	2.219343e-11,	5.002541e-08	
241	2.570396e+05	2.206116e-11,	5.119065e-08	
242	2.630268e+05	2.192266e-11,	5.238303e-08	
243	2.691535e+05	2.177763e-11,	5.360319e-08	
244	2.754229e+05	2.162576e-11,	5.485177e-08	
245	2.818383e+05	2.146674e-11,	5.612943e-08	
246	2.884032e+05	2.130022e-11,	5.743686e-08	
247	2.951209e+05	2.112585e-11,	5.877473e-08	
248	3.019952e+05	2.094327e-11,	6.014377e-08	
249	3.090295e+05	2.075208e-11,	6.154470e-08	
250	3.162278e+05	2.055189e-11,	6.297826e-08	
251	3.235937e+05	2.034225e-11,	6.444521e-08	
252	3.311311e+05	2.012274e-11,	6.594633e-08	
253	3.388442e+05	1.989288e-11,	6.748242e-08	
254	3.467369e+05	1.965219e-11,	6.905429e-08	
255	3.548134e+05	1.940016e-11,	7.066277e-08	
256	3.630781e+05	1.913625e-11,	7.230872e-08	
257	3.715352e+05	1.885990e-11,	7.399301e-08	
258	3.801894e+05	1.857052e-11,	7.571652e-08	
259	3.890451e+05	1.826751e-11,	7.748019e-08	
260	3.981072e+05	1.795022e-11,	7.928494e-08	
261	4.073803e+05	1.761797e-11,	8.113172e-08	
262	4.168694e+05	1.727007e-11,	8.302152e-08	
263	4.265795e+05	1.690577e-11,	8.495534e-08	
264	4.365158e+05	1.652430e-11,	8.693420e-08	
265	4.466836e+05	1.612486e-11,	8.895916e-08	
266	4.570882e+05	1.570658e-11,	9.103129e-08	
267	4.677351e+05	1.526860e-11,	9.315168e-08	
268	4.786301e+05	1.480998e-11,	9.532146e-08	
269	4.897788e+05	1.432974e-11,	9.754179e-08	
270	5.011872e+05	1.382686e-11,	9.981383e-08	
271	5.128614e+05	1.330029e-11,	1.021388e-07	
272	5.248075e+05	1.274890e-11,	1.045179e-07	
273	5.370318e+05	1.217153e-11,	1.069524e-07	
274	5.495409e+05	1.156694e-11,	1.094437e-07	
275	5.623413e+05	1.093386e-11,	1.119930e-07	
276	5.754399e+05	1.027095e-11,	1.146016e-07	
277	5.888437e+05	9.576793e-12,	1.172710e-07	
278	6.025596e+05	8.849922e-12,	1.200026e-07	
279	6.165950e+05	8.088795e-12,	1.227978e-07	
280	6.309573e+05	7.291798e-12,	1.256582e-07	
281	6.456542e+05	6.457240e-12,	1.285851e-07	
282	6.606934e+05	5.583351e-12,	1.315803e-07	
283	6.760830e+05	4.668277e-12,	1.346452e-07	
284	6.918310e+05	3.710077e-12,	1.377815e-07	
285	7.079458e+05	2.706719e-12,	1.409908e-07	
286	7.244360e+05	1.656075e-12,	1.442749e-07	

Index   frequency       m.xn1.x1.msky130_fd_pr__nfet_01 
--------------------------------------------------------------------------------
287	7.413102e+05	5.559159e-13,	1.476355e-07	
288	7.585776e+05	-5.96091e-13,	1.510744e-07	
289	7.762471e+05	-1.80239e-12,	1.545934e-07	
290	7.943282e+05	-3.06554e-12,	1.581943e-07	
291	8.128305e+05	-4.38822e-12,	1.618791e-07	
292	8.317638e+05	-5.77323e-12,	1.656498e-07	
293	8.511380e+05	-7.22352e-12,	1.695083e-07	
294	8.709636e+05	-8.74216e-12,	1.734566e-07	
295	8.912509e+05	-1.03324e-11,	1.774969e-07	
296	9.120108e+05	-1.19975e-11,	1.816314e-07	
297	9.332543e+05	-1.37411e-11,	1.858621e-07	
298	9.549926e+05	-1.55669e-11,	1.901914e-07	
299	9.772372e+05	-1.74788e-11,	1.946215e-07	
300	1.000000e+06	-1.94807e-11,	1.991549e-07	
301	1.023293e+06	-2.15770e-11,	2.037938e-07	
302	1.047129e+06	-2.37721e-11,	2.085408e-07	
303	1.071519e+06	-2.60706e-11,	2.133983e-07	
304	1.096478e+06	-2.84775e-11,	2.183690e-07	
305	1.122018e+06	-3.09977e-11,	2.234555e-07	
306	1.148154e+06	-3.36368e-11,	2.286604e-07	
307	1.174898e+06	-3.64002e-11,	2.339866e-07	
308	1.202264e+06	-3.92939e-11,	2.394369e-07	
309	1.230269e+06	-4.23239e-11,	2.450141e-07	
310	1.258925e+06	-4.54967e-11,	2.507212e-07	
311	1.288250e+06	-4.88191e-11,	2.565613e-07	
312	1.318257e+06	-5.22980e-11,	2.625374e-07	
313	1.348963e+06	-5.59409e-11,	2.686527e-07	
314	1.380384e+06	-5.97554e-11,	2.749104e-07	
315	1.412538e+06	-6.37498e-11,	2.813139e-07	
316	1.445440e+06	-6.79323e-11,	2.878666e-07	
317	1.479108e+06	-7.23120e-11,	2.945719e-07	
318	1.513561e+06	-7.68980e-11,	3.014334e-07	
319	1.548817e+06	-8.17002e-11,	3.084547e-07	
320	1.584893e+06	-8.67287e-11,	3.156395e-07	
321	1.621810e+06	-9.19942e-11,	3.229918e-07	
322	1.659587e+06	-9.75078e-11,	3.305152e-07	
323	1.698244e+06	-1.03281e-10,	3.382140e-07	
324	1.737801e+06	-1.09327e-10,	3.460920e-07	
325	1.778279e+06	-1.15657e-10,	3.541536e-07	
326	1.819701e+06	-1.22286e-10,	3.624029e-07	
327	1.862087e+06	-1.29227e-10,	3.708444e-07	
328	1.905461e+06	-1.36495e-10,	3.794825e-07	
329	1.949845e+06	-1.44106e-10,	3.883218e-07	
330	1.995262e+06	-1.52075e-10,	3.973671e-07	
331	2.041738e+06	-1.60420e-10,	4.066230e-07	
332	2.089296e+06	-1.69159e-10,	4.160945e-07	
333	2.137962e+06	-1.78308e-10,	4.257867e-07	
334	2.187762e+06	-1.87890e-10,	4.357046e-07	
335	2.238721e+06	-1.97922e-10,	4.458535e-07	
336	2.290868e+06	-2.08428e-10,	4.562389e-07	
337	2.344229e+06	-2.19428e-10,	4.668661e-07	
338	2.398833e+06	-2.30947e-10,	4.777409e-07	
339	2.454709e+06	-2.43009e-10,	4.888690e-07	
340	2.511886e+06	-2.55639e-10,	5.002563e-07	
341	2.570396e+06	-2.68864e-10,	5.119089e-07	
342	2.630268e+06	-2.82712e-10,	5.238329e-07	
343	2.691535e+06	-2.97213e-10,	5.360347e-07	
344	2.754229e+06	-3.12397e-10,	5.485207e-07	

Index   frequency       m.xn1.x1.msky130_fd_pr__nfet_01 
--------------------------------------------------------------------------------
345	2.818383e+06	-3.28297e-10,	5.612975e-07	
346	2.884032e+06	-3.44946e-10,	5.743720e-07	
347	2.951209e+06	-3.62380e-10,	5.877510e-07	
348	3.019952e+06	-3.80634e-10,	6.014416e-07	
349	3.090295e+06	-3.99750e-10,	6.154512e-07	
350	3.162278e+06	-4.19765e-10,	6.297871e-07	
351	3.235937e+06	-4.40724e-10,	6.444569e-07	
352	3.311311e+06	-4.62671e-10,	6.594685e-07	
353	3.388442e+06	-4.85651e-10,	6.748298e-07	
354	3.467369e+06	-5.09714e-10,	6.905488e-07	
355	3.548134e+06	-5.34911e-10,	7.066341e-07	
356	3.630781e+06	-5.61295e-10,	7.230940e-07	
357	3.715352e+06	-5.88923e-10,	7.399374e-07	
358	3.801894e+06	-6.17852e-10,	7.571731e-07	
359	3.890451e+06	-6.48143e-10,	7.748103e-07	
360	3.981072e+06	-6.79862e-10,	7.928583e-07	
361	4.073803e+06	-7.13076e-10,	8.113268e-07	
362	4.168694e+06	-7.47854e-10,	8.302255e-07	
363	4.265795e+06	-7.84270e-10,	8.495645e-07	
364	4.365158e+06	-8.22403e-10,	8.693539e-07	
365	4.466836e+06	-8.62331e-10,	8.896043e-07	
366	4.570882e+06	-9.04141e-10,	9.103265e-07	
367	4.677351e+06	-9.47920e-10,	9.315314e-07	
368	4.786301e+06	-9.93761e-10,	9.532302e-07	
369	4.897788e+06	-1.04176e-09,	9.754346e-07	
370	5.011872e+06	-1.09202e-09,	9.981562e-07	
371	5.128614e+06	-1.14465e-09,	1.021407e-06	
372	5.248075e+06	-1.19976e-09,	1.045200e-06	
373	5.370318e+06	-1.25746e-09,	1.069546e-06	
374	5.495409e+06	-1.31789e-09,	1.094461e-06	
375	5.623413e+06	-1.38115e-09,	1.119955e-06	
376	5.754399e+06	-1.44740e-09,	1.146043e-06	
377	5.888437e+06	-1.51677e-09,	1.172739e-06	
378	6.025596e+06	-1.58940e-09,	1.200057e-06	
379	6.165950e+06	-1.66546e-09,	1.228012e-06	
380	6.309573e+06	-1.74509e-09,	1.256618e-06	
381	6.456542e+06	-1.82848e-09,	1.285890e-06	
382	6.606934e+06	-1.91579e-09,	1.315844e-06	
383	6.760830e+06	-2.00721e-09,	1.346496e-06	
384	6.918310e+06	-2.10294e-09,	1.377862e-06	
385	7.079458e+06	-2.20317e-09,	1.409959e-06	
386	7.244360e+06	-2.30813e-09,	1.442803e-06	
387	7.413102e+06	-2.41802e-09,	1.476413e-06	
388	7.585776e+06	-2.53309e-09,	1.510806e-06	
389	7.762471e+06	-2.65357e-09,	1.546000e-06	
390	7.943282e+06	-2.77972e-09,	1.582014e-06	
391	8.128305e+06	-2.91181e-09,	1.618868e-06	
392	8.317638e+06	-3.05012e-09,	1.656580e-06	
393	8.511380e+06	-3.19494e-09,	1.695170e-06	
394	8.709636e+06	-3.34657e-09,	1.734660e-06	
395	8.912509e+06	-3.50534e-09,	1.775070e-06	
396	9.120108e+06	-3.67157e-09,	1.816422e-06	
397	9.332543e+06	-3.84563e-09,	1.858737e-06	
398	9.549926e+06	-4.02787e-09,	1.902038e-06	
399	9.772372e+06	-4.21869e-09,	1.946348e-06	
400	1.000000e+07	-4.41848e-09,	1.991691e-06	
401	1.023293e+07	-4.62766e-09,	2.038090e-06	
402	1.047129e+07	-4.84668e-09,	2.085571e-06	

Index   frequency       m.xn1.x1.msky130_fd_pr__nfet_01 
--------------------------------------------------------------------------------
403	1.071519e+07	-5.07600e-09,	2.134158e-06	
404	1.096478e+07	-5.31610e-09,	2.183878e-06	
405	1.122018e+07	-5.56749e-09,	2.234756e-06	
406	1.148154e+07	-5.83070e-09,	2.286820e-06	
407	1.174898e+07	-6.10627e-09,	2.340097e-06	
408	1.202264e+07	-6.39479e-09,	2.394616e-06	
409	1.230269e+07	-6.69687e-09,	2.450406e-06	
410	1.258925e+07	-7.01314e-09,	2.507496e-06	
411	1.288250e+07	-7.34426e-09,	2.565917e-06	
412	1.318257e+07	-7.69093e-09,	2.625700e-06	
413	1.348963e+07	-8.05388e-09,	2.686876e-06	
414	1.380384e+07	-8.43387e-09,	2.749478e-06	
415	1.412538e+07	-8.83170e-09,	2.813540e-06	
416	1.445440e+07	-9.24819e-09,	2.879095e-06	
417	1.479108e+07	-9.68423e-09,	2.946179e-06	
418	1.513561e+07	-1.01407e-08,	3.014826e-06	
419	1.548817e+07	-1.06186e-08,	3.085075e-06	
420	1.584893e+07	-1.11189e-08,	3.156961e-06	
421	1.621810e+07	-1.16427e-08,	3.230523e-06	
422	1.659587e+07	-1.21910e-08,	3.305801e-06	
423	1.698244e+07	-1.27650e-08,	3.382835e-06	
424	1.737801e+07	-1.33659e-08,	3.461665e-06	
425	1.778279e+07	-1.39949e-08,	3.542334e-06	
426	1.819701e+07	-1.46533e-08,	3.624884e-06	
427	1.862087e+07	-1.53426e-08,	3.709360e-06	
428	1.905461e+07	-1.60641e-08,	3.795807e-06	
429	1.949845e+07	-1.68194e-08,	3.884270e-06	
430	1.995262e+07	-1.76099e-08,	3.974797e-06	
431	2.041738e+07	-1.84374e-08,	4.067437e-06	
432	2.089296e+07	-1.93036e-08,	4.162238e-06	
433	2.137962e+07	-2.02102e-08,	4.259252e-06	
434	2.187762e+07	-2.11591e-08,	4.358529e-06	
435	2.238721e+07	-2.21523e-08,	4.460125e-06	
436	2.290868e+07	-2.31918e-08,	4.564091e-06	
437	2.344229e+07	-2.42797e-08,	4.670485e-06	
438	2.398833e+07	-2.54183e-08,	4.779363e-06	
439	2.454709e+07	-2.66099e-08,	4.890783e-06	
440	2.511886e+07	-2.78569e-08,	5.004805e-06	
441	2.570396e+07	-2.91620e-08,	5.121491e-06	
442	2.630268e+07	-3.05276e-08,	5.240902e-06	
443	2.691535e+07	-3.19567e-08,	5.363103e-06	
444	2.754229e+07	-3.34521e-08,	5.488158e-06	
445	2.818383e+07	-3.50169e-08,	5.616137e-06	
446	2.884032e+07	-3.66541e-08,	5.747106e-06	
447	2.951209e+07	-3.83671e-08,	5.881137e-06	
448	3.019952e+07	-4.01594e-08,	6.018301e-06	
449	3.090295e+07	-4.20346e-08,	6.158673e-06	
450	3.162278e+07	-4.39963e-08,	6.302327e-06	
451	3.235937e+07	-4.60485e-08,	6.449342e-06	
452	3.311311e+07	-4.81953e-08,	6.599796e-06	
453	3.388442e+07	-5.04409e-08,	6.753771e-06	
454	3.467369e+07	-5.27898e-08,	6.911350e-06	
455	3.548134e+07	-5.52465e-08,	7.072618e-06	
456	3.630781e+07	-5.78160e-08,	7.237662e-06	
457	3.715352e+07	-6.05032e-08,	7.406572e-06	
458	3.801894e+07	-6.33134e-08,	7.579439e-06	
459	3.890451e+07	-6.62520e-08,	7.756356e-06	
460	3.981072e+07	-6.93246e-08,	7.937421e-06	

Index   frequency       m.xn1.x1.msky130_fd_pr__nfet_01 
--------------------------------------------------------------------------------
461	4.073803e+07	-7.25373e-08,	8.122730e-06	
462	4.168694e+07	-7.58961e-08,	8.312386e-06	
463	4.265795e+07	-7.94073e-08,	8.506490e-06	
464	4.365158e+07	-8.30778e-08,	8.705150e-06	
465	4.466836e+07	-8.69143e-08,	8.908473e-06	
466	4.570882e+07	-9.09241e-08,	9.116571e-06	
[...]
182	6.606934e+04	-5.49827e-12,	-8.57823e-09	
183	6.760830e+04	-5.56888e-12,	-8.77804e-09	
184	6.918310e+04	-5.64282e-12,	-8.98251e-09	
185	7.079458e+04	-5.72024e-12,	-9.19174e-09	
186	7.244360e+04	-5.80131e-12,	-9.40584e-09	
187	7.413102e+04	-5.88620e-12,	-9.62493e-09	
188	7.585776e+04	-5.97510e-12,	-9.84912e-09	
189	7.762471e+04	-6.06818e-12,	-1.00785e-08	
190	7.943282e+04	-6.16565e-12,	-1.03133e-08	
191	8.128305e+04	-6.26772e-12,	-1.05535e-08	
192	8.317638e+04	-6.37459e-12,	-1.07993e-08	
193	8.511380e+04	-6.48650e-12,	-1.10509e-08	
194	8.709636e+04	-6.60369e-12,	-1.13083e-08	
195	8.912509e+04	-6.72640e-12,	-1.15717e-08	
196	9.120108e+04	-6.85489e-12,	-1.18412e-08	
197	9.332543e+04	-6.98943e-12,	-1.21171e-08	
198	9.549926e+04	-7.13032e-12,	-1.23993e-08	
199	9.772372e+04	-7.27785e-12,	-1.26881e-08	
200	1.000000e+05	-7.43233e-12,	-1.29837e-08	
201	1.023293e+05	-7.59409e-12,	-1.32861e-08	
202	1.047129e+05	-7.76347e-12,	-1.35956e-08	
203	1.071519e+05	-7.94084e-12,	-1.39123e-08	
204	1.096478e+05	-8.12657e-12,	-1.42363e-08	
205	1.122018e+05	-8.32104e-12,	-1.45679e-08	
206	1.148154e+05	-8.52469e-12,	-1.49072e-08	
207	1.174898e+05	-8.73793e-12,	-1.52545e-08	
208	1.202264e+05	-8.96122e-12,	-1.56098e-08	
209	1.230269e+05	-9.19504e-12,	-1.59734e-08	
210	1.258925e+05	-9.43987e-12,	-1.63455e-08	
211	1.288250e+05	-9.69625e-12,	-1.67262e-08	
212	1.318257e+05	-9.96470e-12,	-1.71158e-08	
213	1.348963e+05	-1.02458e-11,	-1.75145e-08	
214	1.380384e+05	-1.05402e-11,	-1.79225e-08	
215	1.412538e+05	-1.08484e-11,	-1.83399e-08	
216	1.445440e+05	-1.11711e-11,	-1.87671e-08	
217	1.479108e+05	-1.15091e-11,	-1.92043e-08	
218	1.513561e+05	-1.18630e-11,	-1.96516e-08	
219	1.548817e+05	-1.22336e-11,	-2.01093e-08	
220	1.584893e+05	-1.26216e-11,	-2.05777e-08	
221	1.621810e+05	-1.30279e-11,	-2.10570e-08	
222	1.659587e+05	-1.34534e-11,	-2.15475e-08	
223	1.698244e+05	-1.38989e-11,	-2.20494e-08	
224	1.737801e+05	-1.43655e-11,	-2.25630e-08	
225	1.778279e+05	-1.48540e-11,	-2.30886e-08	
226	1.819701e+05	-1.53655e-11,	-2.36264e-08	
227	1.862087e+05	-1.59011e-11,	-2.41767e-08	
228	1.905461e+05	-1.64620e-11,	-2.47399e-08	

Index   frequency       vin2#branch                     
--------------------------------------------------------------------------------
229	1.949845e+05	-1.70493e-11,	-2.53161e-08	
230	1.995262e+05	-1.76643e-11,	-2.59058e-08	
231	2.041738e+05	-1.83083e-11,	-2.65092e-08	
232	2.089296e+05	-1.89827e-11,	-2.71267e-08	
233	2.137962e+05	-1.96888e-11,	-2.77586e-08	
234	2.187762e+05	-2.04281e-11,	-2.84052e-08	
235	2.238721e+05	-2.12024e-11,	-2.90668e-08	
236	2.290868e+05	-2.20131e-11,	-2.97439e-08	
237	2.344229e+05	-2.28620e-11,	-3.04367e-08	
238	2.398833e+05	-2.37510e-11,	-3.11456e-08	
239	2.454709e+05	-2.46818e-11,	-3.18711e-08	
240	2.511886e+05	-2.56565e-11,	-3.26135e-08	
241	2.570396e+05	-2.66772e-11,	-3.33732e-08	
242	2.630268e+05	-2.77459e-11,	-3.41505e-08	
243	2.691535e+05	-2.88650e-11,	-3.49460e-08	
244	2.754229e+05	-3.00369e-11,	-3.57600e-08	
245	2.818383e+05	-3.12639e-11,	-3.65929e-08	
246	2.884032e+05	-3.25488e-11,	-3.74453e-08	
247	2.951209e+05	-3.38943e-11,	-3.83175e-08	
248	3.019952e+05	-3.53032e-11,	-3.92100e-08	
249	3.090295e+05	-3.67784e-11,	-4.01234e-08	
250	3.162278e+05	-3.83232e-11,	-4.10579e-08	
251	3.235937e+05	-3.99409e-11,	-4.20143e-08	
252	3.311311e+05	-4.16347e-11,	-4.29929e-08	
253	3.388442e+05	-4.34084e-11,	-4.39944e-08	
254	3.467369e+05	-4.52656e-11,	-4.50191e-08	
255	3.548134e+05	-4.72104e-11,	-4.60678e-08	
256	3.630781e+05	-4.92468e-11,	-4.71408e-08	
257	3.715352e+05	-5.13793e-11,	-4.82389e-08	
258	3.801894e+05	-5.36122e-11,	-4.93625e-08	
259	3.890451e+05	-5.59503e-11,	-5.05123e-08	
260	3.981072e+05	-5.83986e-11,	-5.16889e-08	
261	4.073803e+05	-6.09624e-11,	-5.28928e-08	
262	4.168694e+05	-6.36469e-11,	-5.41249e-08	
263	4.265795e+05	-6.64580e-11,	-5.53856e-08	
264	4.365158e+05	-6.94015e-11,	-5.66757e-08	
265	4.466836e+05	-7.24838e-11,	-5.79958e-08	
266	4.570882e+05	-7.57113e-11,	-5.93467e-08	
267	4.677351e+05	-7.90910e-11,	-6.07291e-08	
268	4.786301e+05	-8.26299e-11,	-6.21436e-08	
269	4.897788e+05	-8.63356e-11,	-6.35911e-08	
270	5.011872e+05	-9.02160e-11,	-6.50724e-08	
271	5.128614e+05	-9.42792e-11,	-6.65881e-08	
272	5.248075e+05	-9.85339e-11,	-6.81391e-08	
273	5.370318e+05	-1.02989e-10,	-6.97263e-08	
274	5.495409e+05	-1.07654e-10,	-7.13504e-08	
275	5.623413e+05	-1.12539e-10,	-7.30124e-08	
276	5.754399e+05	-1.17655e-10,	-7.47130e-08	
277	5.888437e+05	-1.23011e-10,	-7.64533e-08	
278	6.025596e+05	-1.28620e-10,	-7.82341e-08	
279	6.165950e+05	-1.34493e-10,	-8.00564e-08	
280	6.309573e+05	-1.40643e-10,	-8.19212e-08	
281	6.456542e+05	-1.47083e-10,	-8.38293e-08	
282	6.606934e+05	-1.53826e-10,	-8.57820e-08	
283	6.760830e+05	-1.60887e-10,	-8.77801e-08	
284	6.918310e+05	-1.68281e-10,	-8.98247e-08	
285	7.079458e+05	-1.76023e-10,	-9.19170e-08	
286	7.244360e+05	-1.84130e-10,	-9.40580e-08	

Index   frequency       vin2#branch                     
--------------------------------------------------------------------------------
287	7.413102e+05	-1.92619e-10,	-9.62488e-08	
288	7.585776e+05	-2.01509e-10,	-9.84907e-08	
289	7.762471e+05	-2.10817e-10,	-1.00785e-07	
290	7.943282e+05	-2.20564e-10,	-1.03132e-07	
291	8.128305e+05	-2.30770e-10,	-1.05535e-07	
292	8.317638e+05	-2.41457e-10,	-1.07993e-07	
293	8.511380e+05	-2.52648e-10,	-1.10508e-07	
294	8.709636e+05	-2.64367e-10,	-1.13082e-07	
295	8.912509e+05	-2.76637e-10,	-1.15716e-07	
296	9.120108e+05	-2.89486e-10,	-1.18412e-07	
297	9.332543e+05	-3.02941e-10,	-1.21170e-07	
298	9.549926e+05	-3.17029e-10,	-1.23992e-07	
299	9.772372e+05	-3.31782e-10,	-1.26880e-07	
300	1.000000e+06	-3.47229e-10,	-1.29836e-07	
301	1.023293e+06	-3.63405e-10,	-1.32860e-07	
302	1.047129e+06	-3.80343e-10,	-1.35954e-07	
303	1.071519e+06	-3.98079e-10,	-1.39121e-07	
304	1.096478e+06	-4.16651e-10,	-1.42362e-07	
305	1.122018e+06	-4.36099e-10,	-1.45678e-07	
306	1.148154e+06	-4.56463e-10,	-1.49071e-07	
307	1.174898e+06	-4.77786e-10,	-1.52543e-07	
308	1.202264e+06	-5.00115e-10,	-1.56096e-07	
309	1.230269e+06	-5.23496e-10,	-1.59732e-07	
310	1.258925e+06	-5.47978e-10,	-1.63453e-07	
311	1.288250e+06	-5.73615e-10,	-1.67260e-07	
312	1.318257e+06	-6.00460e-10,	-1.71156e-07	
313	1.348963e+06	-6.28569e-10,	-1.75142e-07	
314	1.380384e+06	-6.58004e-10,	-1.79222e-07	
315	1.412538e+06	-6.88825e-10,	-1.83396e-07	
316	1.445440e+06	-7.21099e-10,	-1.87668e-07	
317	1.479108e+06	-7.54894e-10,	-1.92039e-07	
318	1.513561e+06	-7.90282e-10,	-1.96512e-07	
319	1.548817e+06	-8.27338e-10,	-2.01089e-07	
320	1.584893e+06	-8.66139e-10,	-2.05773e-07	
321	1.621810e+06	-9.06770e-10,	-2.10566e-07	
322	1.659587e+06	-9.49315e-10,	-2.15470e-07	
323	1.698244e+06	-9.93865e-10,	-2.20489e-07	
324	1.737801e+06	-1.04051e-09,	-2.25625e-07	
325	1.778279e+06	-1.08936e-09,	-2.30880e-07	
326	1.819701e+06	-1.14051e-09,	-2.36257e-07	
327	1.862087e+06	-1.19407e-09,	-2.41760e-07	
328	1.905461e+06	-1.25016e-09,	-2.47391e-07	
329	1.949845e+06	-1.30888e-09,	-2.53153e-07	
330	1.995262e+06	-1.37038e-09,	-2.59050e-07	
331	2.041738e+06	-1.43477e-09,	-2.65083e-07	
332	2.089296e+06	-1.50220e-09,	-2.71257e-07	
333	2.137962e+06	-1.57280e-09,	-2.77575e-07	
334	2.187762e+06	-1.64673e-09,	-2.84040e-07	
335	2.238721e+06	-1.72415e-09,	-2.90656e-07	
336	2.290868e+06	-1.80521e-09,	-2.97425e-07	
337	2.344229e+06	-1.89010e-09,	-3.04353e-07	
338	2.398833e+06	-1.97898e-09,	-3.11441e-07	
339	2.454709e+06	-2.07205e-09,	-3.18695e-07	
340	2.511886e+06	-2.16951e-09,	-3.26118e-07	
341	2.570396e+06	-2.27156e-09,	-3.33713e-07	
342	2.630268e+06	-2.37842e-09,	-3.41485e-07	
343	2.691535e+06	-2.49031e-09,	-3.49438e-07	
344	2.754229e+06	-2.60748e-09,	-3.57577e-07	

Index   frequency       vin2#branch                     
--------------------------------------------------------------------------------
345	2.818383e+06	-2.73017e-09,	-3.65905e-07	
346	2.884032e+06	-2.85864e-09,	-3.74427e-07	
347	2.951209e+06	-2.99316e-09,	-3.83147e-07	
348	3.019952e+06	-3.13402e-09,	-3.92070e-07	
349	3.090295e+06	-3.28152e-09,	-4.01201e-07	
350	3.162278e+06	-3.43597e-09,	-4.10545e-07	
351	3.235937e+06	-3.59770e-09,	-4.20106e-07	
352	3.311311e+06	-3.76704e-09,	-4.29890e-07	
353	3.388442e+06	-3.94437e-09,	-4.39901e-07	
354	3.467369e+06	-4.13005e-09,	-4.50146e-07	
355	3.548134e+06	-4.32448e-09,	-4.60629e-07	
356	3.630781e+06	-4.52807e-09,	-4.71356e-07	
357	3.715352e+06	-4.74125e-09,	-4.82332e-07	
358	3.801894e+06	-4.96448e-09,	-4.93565e-07	
359	3.890451e+06	-5.19822e-09,	-5.05058e-07	
360	3.981072e+06	-5.44297e-09,	-5.16819e-07	
361	4.073803e+06	-5.69926e-09,	-5.28854e-07	
362	4.168694e+06	-5.96762e-09,	-5.41169e-07	
363	4.265795e+06	-6.24862e-09,	-5.53771e-07	
364	4.365158e+06	-6.54287e-09,	-5.66666e-07	
365	4.466836e+06	-6.85097e-09,	-5.79861e-07	
366	4.570882e+06	-7.17359e-09,	-5.93362e-07	
367	4.677351e+06	-7.51140e-09,	-6.07179e-07	
368	4.786301e+06	-7.86513e-09,	-6.21316e-07	
369	4.897788e+06	-8.23552e-09,	-6.35783e-07	
370	5.011872e+06	-8.62336e-09,	-6.50586e-07	
371	5.128614e+06	-9.02947e-09,	-6.65733e-07	
372	5.248075e+06	-9.45470e-09,	-6.81233e-07	
373	5.370318e+06	-9.89996e-09,	-6.97093e-07	
374	5.495409e+06	-1.03662e-08,	-7.13322e-07	
375	5.623413e+06	-1.08544e-08,	-7.29928e-07	
376	5.754399e+06	-1.13656e-08,	-7.46921e-07	
377	5.888437e+06	-1.19008e-08,	-7.64309e-07	
378	6.025596e+06	-1.24613e-08,	-7.82101e-07	
379	6.165950e+06	-1.30482e-08,	-8.00307e-07	
380	6.309573e+06	-1.36627e-08,	-8.18936e-07	
381	6.456542e+06	-1.43061e-08,	-8.37998e-07	
382	6.606934e+06	-1.49798e-08,	-8.57503e-07	
383	6.760830e+06	-1.56853e-08,	-8.77461e-07	
384	6.918310e+06	-1.64240e-08,	-8.97884e-07	
385	7.079458e+06	-1.71974e-08,	-9.18780e-07	
386	7.244360e+06	-1.80073e-08,	-9.40163e-07	
387	7.413102e+06	-1.88552e-08,	-9.62041e-07	
388	7.585776e+06	-1.97431e-08,	-9.84429e-07	
389	7.762471e+06	-2.06728e-08,	-1.00734e-06	
390	7.943282e+06	-2.16463e-08,	-1.03077e-06	
391	8.128305e+06	-2.26655e-08,	-1.05476e-06	
392	8.317638e+06	-2.37328e-08,	-1.07930e-06	
393	8.511380e+06	-2.48502e-08,	-1.10441e-06	
394	8.709636e+06	-2.60203e-08,	-1.13010e-06	
395	8.912509e+06	-2.72454e-08,	-1.15639e-06	
396	9.120108e+06	-2.85281e-08,	-1.18328e-06	
397	9.332543e+06	-2.98712e-08,	-1.21081e-06	
398	9.549926e+06	-3.12774e-08,	-1.23897e-06	
399	9.772372e+06	-3.27498e-08,	-1.26778e-06	
400	1.000000e+07	-3.42915e-08,	-1.29726e-06	
401	1.023293e+07	-3.59057e-08,	-1.32742e-06	
402	1.047129e+07	-3.75957e-08,	-1.35829e-06	

Index   frequency       vin2#branch                     
--------------------------------------------------------------------------------
403	1.071519e+07	-3.93652e-08,	-1.38986e-06	
404	1.096478e+07	-4.12179e-08,	-1.42217e-06	
405	1.122018e+07	-4.31578e-08,	-1.45523e-06	
406	1.148154e+07	-4.51887e-08,	-1.48905e-06	
407	1.174898e+07	-4.73152e-08,	-1.52365e-06	
408	1.202264e+07	-4.95415e-08,	-1.55906e-06	
409	1.230269e+07	-5.18725e-08,	-1.59528e-06	
410	1.258925e+07	-5.43129e-08,	-1.63234e-06	
411	1.288250e+07	-5.68680e-08,	-1.67025e-06	
412	1.318257e+07	-5.95430e-08,	-1.70905e-06	
413	1.348963e+07	-6.23437e-08,	-1.74873e-06	
414	1.380384e+07	-6.52759e-08,	-1.78933e-06	
415	1.412538e+07	-6.83456e-08,	-1.83087e-06	
416	1.445440e+07	-7.15595e-08,	-1.87337e-06	
417	1.479108e+07	-7.49241e-08,	-1.91685e-06	
418	1.513561e+07	-7.84465e-08,	-1.96132e-06	
419	1.548817e+07	-8.21342e-08,	-2.00682e-06	
420	1.584893e+07	-8.59948e-08,	-2.05337e-06	
421	1.621810e+07	-9.00363e-08,	-2.10099e-06	
422	1.659587e+07	-9.42672e-08,	-2.14970e-06	
423	1.698244e+07	-9.86964e-08,	-2.19953e-06	
424	1.737801e+07	-1.03333e-07,	-2.25050e-06	
425	1.778279e+07	-1.08187e-07,	-2.30264e-06	
426	1.819701e+07	-1.13268e-07,	-2.35598e-06	
427	1.862087e+07	-1.18586e-07,	-2.41054e-06	
428	1.905461e+07	-1.24154e-07,	-2.46635e-06	
429	1.949845e+07	-1.29982e-07,	-2.52343e-06	
430	1.995262e+07	-1.36082e-07,	-2.58181e-06	
431	2.041738e+07	-1.42467e-07,	-2.64153e-06	
432	2.089296e+07	-1.49151e-07,	-2.70261e-06	
433	2.137962e+07	-1.56147e-07,	-2.76508e-06	
434	2.187762e+07	-1.63469e-07,	-2.82896e-06	
435	2.238721e+07	-1.71133e-07,	-2.89431e-06	
436	2.290868e+07	-1.79154e-07,	-2.96113e-06	
437	2.344229e+07	-1.87549e-07,	-3.02947e-06	
438	2.398833e+07	-1.96335e-07,	-3.09935e-06	
439	2.454709e+07	-2.05530e-07,	-3.17081e-06	
440	2.511886e+07	-2.15152e-07,	-3.24389e-06	
441	2.570396e+07	-2.25223e-07,	-3.31862e-06	
442	2.630268e+07	-2.35761e-07,	-3.39502e-06	
443	2.691535e+07	-2.46788e-07,	-3.47314e-06	
444	2.754229e+07	-2.58328e-07,	-3.55301e-06	
445	2.818383e+07	-2.70402e-07,	-3.63468e-06	
446	2.884032e+07	-2.83036e-07,	-3.71816e-06	
447	2.951209e+07	-2.96254e-07,	-3.80351e-06	
448	3.019952e+07	-3.10085e-07,	-3.89075e-06	
449	3.090295e+07	-3.24554e-07,	-3.97994e-06	
450	3.162278e+07	-3.39692e-07,	-4.07109e-06	
451	3.235937e+07	-3.55527e-07,	-4.16427e-06	
452	3.311311e+07	-3.72093e-07,	-4.25949e-06	
453	3.388442e+07	-3.89422e-07,	-4.35681e-06	
454	3.467369e+07	-4.07547e-07,	-4.45627e-06	
455	3.548134e+07	-4.26505e-07,	-4.55789e-06	
456	3.630781e+07	-4.46332e-07,	-4.66173e-06	
457	3.715352e+07	-4.67068e-07,	-4.76783e-06	
458	3.801894e+07	-4.88753e-07,	-4.87622e-06	
459	3.890451e+07	-5.11429e-07,	-4.98696e-06	
460	3.981072e+07	-5.35139e-07,	-5.10007e-06	

Index   frequency       vin2#branch                     
--------------------------------------------------------------------------------
461	4.073803e+07	-5.59930e-07,	-5.21560e-06	
462	4.168694e+07	-5.85849e-07,	-5.33360e-06	
463	4.265795e+07	-6.12944e-07,	-5.45410e-06	
464	4.365158e+07	-6.41268e-07,	-5.57715e-06	
465	4.466836e+07	-6.70873e-07,	-5.70278e-06	
466	4.570882e+07	-7.01815e-07,	-5.83105e-06	
467	4.677351e+07	-7.34152e-07,	-5.96198e-06	
468	4.786301e+07	-7.67944e-07,	-6.09563e-06	
469	4.897788e+07	-8.03252e-07,	-6.23203e-06	
470	5.011872e+07	-8.40140e-07,	-6.37122e-06	
471	5.128614e+07	-8.78677e-07,	-6.51324e-06	
472	5.248075e+07	-9.18930e-07,	-6.65813e-06	
473	5.370318e+07	-9.60973e-07,	-6.80592e-06	
474	5.495409e+07	-1.00488e-06,	-6.95666e-06	
475	5.623413e+07	-1.05072e-06,	-7.11037e-06	
476	5.754399e+07	-1.09859e-06,	-7.26709e-06	
477	5.888437e+07	-1.14855e-06,	-7.42686e-06	
478	6.025596e+07	-1.20071e-06,	-7.58970e-06	
479	6.165950e+07	-1.25513e-06,	-7.75565e-06	
480	6.309573e+07	-1.31193e-06,	-7.92472e-06	
481	6.456542e+07	-1.37118e-06,	-8.09695e-06	
482	6.606934e+07	-1.43298e-06,	-8.27236e-06	
483	6.760830e+07	-1.49744e-06,	-8.45097e-06	
484	6.918310e+07	-1.56466e-06,	-8.63280e-06	
485	7.079458e+07	-1.63473e-06,	-8.81786e-06	
486	7.244360e+07	-1.70777e-06,	-9.00616e-06	
487	7.413102e+07	-1.78389e-06,	-9.19771e-06	
488	7.585776e+07	-1.86320e-06,	-9.39251e-06	
489	7.762471e+07	-1.94582e-06,	-9.59057e-06	
490	7.943282e+07	-2.03185e-06,	-9.79189e-06	
491	8.128305e+07	-2.12143e-06,	-9.99645e-06	
492	8.317638e+07	-2.21468e-06,	-1.02042e-05	
493	8.511380e+07	-2.31172e-06,	-1.04152e-05	
494	8.709636e+07	-2.41267e-06,	-1.06294e-05	
495	8.912509e+07	-2.51767e-06,	-1.08468e-05	
496	9.120108e+07	-2.62685e-06,	-1.10673e-05	
497	9.332543e+07	-2.74033e-06,	-1.12909e-05	
498	9.549926e+07	-2.85826e-06,	-1.15175e-05	
499	9.772372e+07	-2.98075e-06,	-1.17471e-05	
500	1.000000e+08	-3.10796e-06,	-1.19796e-05	
501	1.023293e+08	-3.24000e-06,	-1.22150e-05	
502	1.047129e+08	-3.37701e-06,	-1.24532e-05	
503	1.071519e+08	-3.51914e-06,	-1.26940e-05	
504	1.096478e+08	-3.66650e-06,	-1.29375e-05	
505	1.122018e+08	-3.81923e-06,	-1.31835e-05	
506	1.148154e+08	-3.97745e-06,	-1.34319e-05	
507	1.174898e+08	-4.14130e-06,	-1.36826e-05	
508	1.202264e+08	-4.31089e-06,	-1.39354e-05	
509	1.230269e+08	-4.48634e-06,	-1.41903e-05	
510	1.258925e+08	-4.66776e-06,	-1.44470e-05	
511	1.288250e+08	-4.85527e-06,	-1.47055e-05	
512	1.318257e+08	-5.04896e-06,	-1.49656e-05	
513	1.348963e+08	-5.24893e-06,	-1.52270e-05	
514	1.380384e+08	-5.45527e-06,	-1.54897e-05	
515	1.412538e+08	-5.66806e-06,	-1.57534e-05	
516	1.445440e+08	-5.88736e-06,	-1.60179e-05	
517	1.479108e+08	-6.11325e-06,	-1.62831e-05	
518	1.513561e+08	-6.34576e-06,	-1.65487e-05	

Index   frequency       vin2#branch                     
--------------------------------------------------------------------------------
519	1.548817e+08	-6.58494e-06,	-1.68145e-05	
520	1.584893e+08	-6.83082e-06,	-1.70802e-05	
521	1.621810e+08	-7.08341e-06,	-1.73457e-05	
522	1.659587e+08	-7.34270e-06,	-1.76107e-05	
523	1.698244e+08	-7.60869e-06,	-1.78750e-05	
524	1.737801e+08	-7.88134e-06,	-1.81383e-05	
525	1.778279e+08	-8.16060e-06,	-1.84004e-05	
526	1.819701e+08	-8.44642e-06,	-1.86609e-05	
527	1.862087e+08	-8.73871e-06,	-1.89198e-05	
528	1.905461e+08	-9.03738e-06,	-1.91766e-05	
529	1.949845e+08	-9.34230e-06,	-1.94312e-05	
530	1.995262e+08	-9.65335e-06,	-1.96833e-05	
531	2.041738e+08	-9.97037e-06,	-1.99327e-05	
532	2.089296e+08	-1.02932e-05,	-2.01791e-05	
533	2.137962e+08	-1.06216e-05,	-2.04223e-05	
534	2.187762e+08	-1.09554e-05,	-2.06621e-05	
535	2.238721e+08	-1.12944e-05,	-2.08982e-05	
536	2.290868e+08	-1.16383e-05,	-2.11304e-05	
537	2.344229e+08	-1.19869e-05,	-2.13586e-05	
538	2.398833e+08	-1.23399e-05,	-2.15826e-05	
539	2.454709e+08	-1.26969e-05,	-2.18022e-05	
540	2.511886e+08	-1.30577e-05,	-2.20173e-05	
541	2.570396e+08	-1.34219e-05,	-2.22276e-05	
542	2.630268e+08	-1.37892e-05,	-2.24333e-05	
543	2.691535e+08	-1.41593e-05,	-2.26340e-05	
544	2.754229e+08	-1.45317e-05,	-2.28298e-05	
545	2.818383e+08	-1.49062e-05,	-2.30207e-05	
546	2.884032e+08	-1.52822e-05,	-2.32065e-05	
547	2.951209e+08	-1.56595e-05,	-2.33874e-05	
548	3.019952e+08	-1.60376e-05,	-2.35633e-05	
549	3.090295e+08	-1.64161e-05,	-2.37342e-05	
550	3.162278e+08	-1.67947e-05,	-2.39003e-05	
551	3.235937e+08	-1.71729e-05,	-2.40616e-05	
552	3.311311e+08	-1.75503e-05,	-2.42184e-05	
553	3.388442e+08	-1.79266e-05,	-2.43706e-05	
554	3.467369e+08	-1.83013e-05,	-2.45186e-05	
555	3.548134e+08	-1.86740e-05,	-2.46624e-05	
556	3.630781e+08	-1.90444e-05,	-2.48024e-05	
557	3.715352e+08	-1.94122e-05,	-2.49387e-05	
558	3.801894e+08	-1.97769e-05,	-2.50717e-05	
559	3.890451e+08	-2.01382e-05,	-2.52015e-05	
560	3.981072e+08	-2.04958e-05,	-2.53287e-05	
561	4.073803e+08	-2.08493e-05,	-2.54533e-05	
562	4.168694e+08	-2.11985e-05,	-2.55759e-05	
563	4.265795e+08	-2.15431e-05,	-2.56968e-05	
564	4.365158e+08	-2.18828e-05,	-2.58163e-05	
565	4.466836e+08	-2.22174e-05,	-2.59348e-05	
566	4.570882e+08	-2.25466e-05,	-2.60528e-05	
567	4.677351e+08	-2.28703e-05,	-2.61706e-05	
568	4.786301e+08	-2.31881e-05,	-2.62887e-05	
569	4.897788e+08	-2.35000e-05,	-2.64075e-05	
570	5.011872e+08	-2.38059e-05,	-2.65275e-05	
571	5.128614e+08	-2.41054e-05,	-2.66490e-05	
572	5.248075e+08	-2.43986e-05,	-2.67727e-05	
573	5.370318e+08	-2.46854e-05,	-2.68988e-05	
574	5.495409e+08	-2.49656e-05,	-2.70279e-05	
575	5.623413e+08	-2.52392e-05,	-2.71604e-05	
576	5.754399e+08	-2.55062e-05,	-2.72968e-05	

Index   frequency       vin2#branch                     
--------------------------------------------------------------------------------
577	5.888437e+08	-2.57664e-05,	-2.74375e-05	
578	6.025596e+08	-2.60200e-05,	-2.75831e-05	
579	6.165950e+08	-2.62668e-05,	-2.77339e-05	
580	6.309573e+08	-2.65070e-05,	-2.78904e-05	
581	6.456542e+08	-2.67404e-05,	-2.80531e-05	
582	6.606934e+08	-2.69673e-05,	-2.82224e-05	
583	6.760830e+08	-2.71875e-05,	-2.83987e-05	
584	6.918310e+08	-2.74012e-05,	-2.85826e-05	
585	7.079458e+08	-2.76085e-05,	-2.87743e-05	
586	7.244360e+08	-2.78094e-05,	-2.89744e-05	
587	7.413102e+08	-2.80040e-05,	-2.91833e-05	
588	7.585776e+08	-2.81924e-05,	-2.94015e-05	
589	7.762471e+08	-2.83747e-05,	-2.96292e-05	
590	7.943282e+08	-2.85510e-05,	-2.98669e-05	
591	8.128305e+08	-2.87215e-05,	-3.01151e-05	
592	8.317638e+08	-2.88861e-05,	-3.03741e-05	
593	8.511380e+08	-2.90452e-05,	-3.06444e-05	
594	8.709636e+08	-2.91987e-05,	-3.09263e-05	
595	8.912509e+08	-2.93468e-05,	-3.12202e-05	
596	9.120108e+08	-2.94897e-05,	-3.15264e-05	
597	9.332543e+08	-2.96275e-05,	-3.18455e-05	
598	9.549926e+08	-2.97603e-05,	-3.21778e-05	
599	9.772372e+08	-2.98882e-05,	-3.25235e-05	
600	1.000000e+09	-3.00114e-05,	-3.28832e-05	
out1 magnitude at 1kHz:
db(v(out1)[0]) = -6.23074e-07
out2 magnitude at 1kHz:
db(v(out2)[0]) = -6.23074e-07
Note: Simulation executed from .control section 
