
Note: No compatibility mode selected!


Circuit: * transmission gate ac characterization - ngspice version

Doing analysis at TEMP = 27.000000 and TNOM = 27.000000

Using SPARSE 1.3 as Direct Linear Solver
 Reference value :  1.00000e+03
No. of Data Rows : 601
ngspice AC analysis complete
Note: Simulation executed from .control section 
