
Note: No compatibility mode selected!


Circuit: * nmos and pmos gate sweep at two drain voltages

Doing analysis at TEMP = 27.000000 and TNOM = 27.000000

Using SPARSE 1.3 as Direct Linear Solver
 Reference value :  0.00000e+00
No. of Data Rows : 1801
Done
Note: Simulation executed from .control section 
